
---------- Begin Simulation Statistics ----------
simSeconds                                   0.085889                       # Number of seconds simulated (Second)
simTicks                                  85888644000                       # Number of ticks simulated (Tick)
finalTick                                 85888644000                       # Number of ticks from beginning of simulation (restored from checkpoints and never reset) (Tick)
simFreq                                  1000000000000                       # The number of ticks per simulated second ((Tick/Second))
hostSeconds                                    248.80                       # Real time elapsed on the host (Second)
hostTickRate                                345206071                       # The number of ticks simulated per host second (ticks/s) ((Tick/Second))
hostMemory                                     691804                       # Number of bytes of host memory used (Byte)
simInsts                                    100000000                       # Number of instructions simulated (Count)
simOps                                      100677219                       # Number of ops (including micro ops) simulated (Count)
hostInstRate                                   401923                       # Simulator instruction rate (inst/s) ((Count/Second))
hostOpRate                                     404644                       # Simulator op (including micro ops) rate (op/s) ((Count/Second))
system.clk_domain.clock                          1000                       # Clock period in ticks (Tick)
system.cpu.numCycles                        171777288                       # Number of cpu cycles simulated (Cycle)
system.cpu.numWorkItemsStarted                      0                       # Number of work items this cpu started (Count)
system.cpu.numWorkItemsCompleted                    0                       # Number of work items this cpu completed (Count)
system.cpu.numInsts                         100000000                       # Number of instructions committed (Count)
system.cpu.numOps                           100677219                       # Number of ops (including micro ops) committed (Count)
system.cpu.numDiscardedOps                     485778                       # Number of ops (including micro ops) which were discarded before commit (Count)
system.cpu.numFetchSuspends                         0                       # Number of times Execute suspended instruction fetching (Count)
system.cpu.cpi                               1.717773                       # CPI: cycles per instruction ((Cycle/Count))
system.cpu.ipc                               0.582149                       # IPC: instructions per cycle ((Count/Cycle))
system.cpu.committedInstType_0::No_OpClass           47      0.00%      0.00% # Class of committed instruction (Count)
system.cpu.committedInstType_0::IntAlu       40121112     39.85%     39.85% # Class of committed instruction (Count)
system.cpu.committedInstType_0::IntMult         20664      0.02%     39.87% # Class of committed instruction (Count)
system.cpu.committedInstType_0::IntDiv              4      0.00%     39.87% # Class of committed instruction (Count)
system.cpu.committedInstType_0::FloatAdd            0      0.00%     39.87% # Class of committed instruction (Count)
system.cpu.committedInstType_0::FloatCmp            0      0.00%     39.87% # Class of committed instruction (Count)
system.cpu.committedInstType_0::FloatCvt            0      0.00%     39.87% # Class of committed instruction (Count)
system.cpu.committedInstType_0::FloatMult            0      0.00%     39.87% # Class of committed instruction (Count)
system.cpu.committedInstType_0::FloatMultAcc            0      0.00%     39.87% # Class of committed instruction (Count)
system.cpu.committedInstType_0::FloatDiv            0      0.00%     39.87% # Class of committed instruction (Count)
system.cpu.committedInstType_0::FloatMisc           16      0.00%     39.87% # Class of committed instruction (Count)
system.cpu.committedInstType_0::FloatSqrt            0      0.00%     39.87% # Class of committed instruction (Count)
system.cpu.committedInstType_0::SimdAdd            11      0.00%     39.87% # Class of committed instruction (Count)
system.cpu.committedInstType_0::SimdAddAcc            0      0.00%     39.87% # Class of committed instruction (Count)
system.cpu.committedInstType_0::SimdAlu            14      0.00%     39.87% # Class of committed instruction (Count)
system.cpu.committedInstType_0::SimdCmp            29      0.00%     39.87% # Class of committed instruction (Count)
system.cpu.committedInstType_0::SimdCvt             0      0.00%     39.87% # Class of committed instruction (Count)
system.cpu.committedInstType_0::SimdMisc           19      0.00%     39.87% # Class of committed instruction (Count)
system.cpu.committedInstType_0::SimdMult            0      0.00%     39.87% # Class of committed instruction (Count)
system.cpu.committedInstType_0::SimdMultAcc            0      0.00%     39.87% # Class of committed instruction (Count)
system.cpu.committedInstType_0::SimdShift            0      0.00%     39.87% # Class of committed instruction (Count)
system.cpu.committedInstType_0::SimdShiftAcc            0      0.00%     39.87% # Class of committed instruction (Count)
system.cpu.committedInstType_0::SimdDiv             0      0.00%     39.87% # Class of committed instruction (Count)
system.cpu.committedInstType_0::SimdSqrt            0      0.00%     39.87% # Class of committed instruction (Count)
system.cpu.committedInstType_0::SimdFloatAdd            0      0.00%     39.87% # Class of committed instruction (Count)
system.cpu.committedInstType_0::SimdFloatAlu            0      0.00%     39.87% # Class of committed instruction (Count)
system.cpu.committedInstType_0::SimdFloatCmp            0      0.00%     39.87% # Class of committed instruction (Count)
system.cpu.committedInstType_0::SimdFloatCvt            0      0.00%     39.87% # Class of committed instruction (Count)
system.cpu.committedInstType_0::SimdFloatDiv            0      0.00%     39.87% # Class of committed instruction (Count)
system.cpu.committedInstType_0::SimdFloatMisc            0      0.00%     39.87% # Class of committed instruction (Count)
system.cpu.committedInstType_0::SimdFloatMult            0      0.00%     39.87% # Class of committed instruction (Count)
system.cpu.committedInstType_0::SimdFloatMultAcc            0      0.00%     39.87% # Class of committed instruction (Count)
system.cpu.committedInstType_0::SimdFloatSqrt            0      0.00%     39.87% # Class of committed instruction (Count)
system.cpu.committedInstType_0::SimdReduceAdd            0      0.00%     39.87% # Class of committed instruction (Count)
system.cpu.committedInstType_0::SimdReduceAlu            0      0.00%     39.87% # Class of committed instruction (Count)
system.cpu.committedInstType_0::SimdReduceCmp            0      0.00%     39.87% # Class of committed instruction (Count)
system.cpu.committedInstType_0::SimdFloatReduceAdd            0      0.00%     39.87% # Class of committed instruction (Count)
system.cpu.committedInstType_0::SimdFloatReduceCmp            0      0.00%     39.87% # Class of committed instruction (Count)
system.cpu.committedInstType_0::SimdAes             0      0.00%     39.87% # Class of committed instruction (Count)
system.cpu.committedInstType_0::SimdAesMix            0      0.00%     39.87% # Class of committed instruction (Count)
system.cpu.committedInstType_0::SimdSha1Hash            0      0.00%     39.87% # Class of committed instruction (Count)
system.cpu.committedInstType_0::SimdSha1Hash2            0      0.00%     39.87% # Class of committed instruction (Count)
system.cpu.committedInstType_0::SimdSha256Hash            0      0.00%     39.87% # Class of committed instruction (Count)
system.cpu.committedInstType_0::SimdSha256Hash2            0      0.00%     39.87% # Class of committed instruction (Count)
system.cpu.committedInstType_0::SimdShaSigma2            0      0.00%     39.87% # Class of committed instruction (Count)
system.cpu.committedInstType_0::SimdShaSigma3            0      0.00%     39.87% # Class of committed instruction (Count)
system.cpu.committedInstType_0::SimdPredAlu            0      0.00%     39.87% # Class of committed instruction (Count)
system.cpu.committedInstType_0::MemRead      47675348     47.35%     87.23% # Class of committed instruction (Count)
system.cpu.committedInstType_0::MemWrite     12859955     12.77%    100.00% # Class of committed instruction (Count)
system.cpu.committedInstType_0::FloatMemRead            0      0.00%    100.00% # Class of committed instruction (Count)
system.cpu.committedInstType_0::FloatMemWrite            0      0.00%    100.00% # Class of committed instruction (Count)
system.cpu.committedInstType_0::IprAccess            0      0.00%    100.00% # Class of committed instruction (Count)
system.cpu.committedInstType_0::InstPrefetch            0      0.00%    100.00% # Class of committed instruction (Count)
system.cpu.committedInstType_0::total       100677219                       # Class of committed instruction (Count)
system.cpu.branchPred.lookups                 5719760                       # Number of BP lookups (Count)
system.cpu.branchPred.condPredicted           4581457                       # Number of conditional branches predicted (Count)
system.cpu.branchPred.condIncorrect            185574                       # Number of conditional branches incorrect (Count)
system.cpu.branchPred.BTBLookups              2945917                       # Number of BTB lookups (Count)
system.cpu.branchPred.BTBHits                 2942768                       # Number of BTB hits (Count)
system.cpu.branchPred.BTBHitRatio            0.998931                       # BTB Hit Ratio (Ratio)
system.cpu.branchPred.RASUsed                  138463                       # Number of times the RAS was used to get a target. (Count)
system.cpu.branchPred.RASIncorrect                103                       # Number of incorrect RAS predictions. (Count)
system.cpu.branchPred.indirectLookups             303                       # Number of indirect predictor lookups. (Count)
system.cpu.branchPred.indirectHits                166                       # Number of indirect target hits. (Count)
system.cpu.branchPred.indirectMisses              137                       # Number of indirect misses. (Count)
system.cpu.branchPred.indirectMispredicted          125                       # Number of mispredicted indirect branches. (Count)
system.cpu.dcache.demandHits::cpu.data       57861797                       # number of demand (read+write) hits (Count)
system.cpu.dcache.demandHits::total          57861797                       # number of demand (read+write) hits (Count)
system.cpu.dcache.overallHits::cpu.data      57861797                       # number of overall hits (Count)
system.cpu.dcache.overallHits::total         57861797                       # number of overall hits (Count)
system.cpu.dcache.demandMisses::cpu.data       690045                       # number of demand (read+write) misses (Count)
system.cpu.dcache.demandMisses::total          690045                       # number of demand (read+write) misses (Count)
system.cpu.dcache.overallMisses::cpu.data       690045                       # number of overall misses (Count)
system.cpu.dcache.overallMisses::total         690045                       # number of overall misses (Count)
system.cpu.dcache.demandMissLatency::cpu.data  27525756000                       # number of demand (read+write) miss ticks (Tick)
system.cpu.dcache.demandMissLatency::total  27525756000                       # number of demand (read+write) miss ticks (Tick)
system.cpu.dcache.overallMissLatency::cpu.data  27525756000                       # number of overall miss ticks (Tick)
system.cpu.dcache.overallMissLatency::total  27525756000                       # number of overall miss ticks (Tick)
system.cpu.dcache.demandAccesses::cpu.data     58551842                       # number of demand (read+write) accesses (Count)
system.cpu.dcache.demandAccesses::total      58551842                       # number of demand (read+write) accesses (Count)
system.cpu.dcache.overallAccesses::cpu.data     58551842                       # number of overall (read+write) accesses (Count)
system.cpu.dcache.overallAccesses::total     58551842                       # number of overall (read+write) accesses (Count)
system.cpu.dcache.demandMissRate::cpu.data     0.011785                       # miss rate for demand accesses (Ratio)
system.cpu.dcache.demandMissRate::total      0.011785                       # miss rate for demand accesses (Ratio)
system.cpu.dcache.overallMissRate::cpu.data     0.011785                       # miss rate for overall accesses (Ratio)
system.cpu.dcache.overallMissRate::total     0.011785                       # miss rate for overall accesses (Ratio)
system.cpu.dcache.demandAvgMissLatency::cpu.data 39889.798491                       # average overall miss latency in ticks ((Tick/Count))
system.cpu.dcache.demandAvgMissLatency::total 39889.798491                       # average overall miss latency in ticks ((Tick/Count))
system.cpu.dcache.overallAvgMissLatency::cpu.data 39889.798491                       # average overall miss latency ((Tick/Count))
system.cpu.dcache.overallAvgMissLatency::total 39889.798491                       # average overall miss latency ((Tick/Count))
system.cpu.dcache.blockedCycles::no_mshrs            0                       # number of cycles access was blocked (Cycle)
system.cpu.dcache.blockedCycles::no_targets            0                       # number of cycles access was blocked (Cycle)
system.cpu.dcache.blockedCauses::no_mshrs            0                       # number of times access was blocked (Count)
system.cpu.dcache.blockedCauses::no_targets            0                       # number of times access was blocked (Count)
system.cpu.dcache.avgBlocked::no_mshrs            nan                       # average number of cycles each access was blocked ((Cycle/Count))
system.cpu.dcache.avgBlocked::no_targets          nan                       # average number of cycles each access was blocked ((Cycle/Count))
system.cpu.dcache.writebacks::writebacks       526147                       # number of writebacks (Count)
system.cpu.dcache.writebacks::total            526147                       # number of writebacks (Count)
system.cpu.dcache.demandMshrHits::cpu.data        63004                       # number of demand (read+write) MSHR hits (Count)
system.cpu.dcache.demandMshrHits::total         63004                       # number of demand (read+write) MSHR hits (Count)
system.cpu.dcache.overallMshrHits::cpu.data        63004                       # number of overall MSHR hits (Count)
system.cpu.dcache.overallMshrHits::total        63004                       # number of overall MSHR hits (Count)
system.cpu.dcache.demandMshrMisses::cpu.data       627041                       # number of demand (read+write) MSHR misses (Count)
system.cpu.dcache.demandMshrMisses::total       627041                       # number of demand (read+write) MSHR misses (Count)
system.cpu.dcache.overallMshrMisses::cpu.data       627041                       # number of overall MSHR misses (Count)
system.cpu.dcache.overallMshrMisses::total       627041                       # number of overall MSHR misses (Count)
system.cpu.dcache.demandMshrMissLatency::cpu.data  22595278500                       # number of demand (read+write) MSHR miss ticks (Tick)
system.cpu.dcache.demandMshrMissLatency::total  22595278500                       # number of demand (read+write) MSHR miss ticks (Tick)
system.cpu.dcache.overallMshrMissLatency::cpu.data  22595278500                       # number of overall MSHR miss ticks (Tick)
system.cpu.dcache.overallMshrMissLatency::total  22595278500                       # number of overall MSHR miss ticks (Tick)
system.cpu.dcache.demandMshrMissRate::cpu.data     0.010709                       # mshr miss ratio for demand accesses (Ratio)
system.cpu.dcache.demandMshrMissRate::total     0.010709                       # mshr miss ratio for demand accesses (Ratio)
system.cpu.dcache.overallMshrMissRate::cpu.data     0.010709                       # mshr miss ratio for overall accesses (Ratio)
system.cpu.dcache.overallMshrMissRate::total     0.010709                       # mshr miss ratio for overall accesses (Ratio)
system.cpu.dcache.demandAvgMshrMissLatency::cpu.data 36034.770454                       # average overall mshr miss latency ((Tick/Count))
system.cpu.dcache.demandAvgMshrMissLatency::total 36034.770454                       # average overall mshr miss latency ((Tick/Count))
system.cpu.dcache.overallAvgMshrMissLatency::cpu.data 36034.770454                       # average overall mshr miss latency ((Tick/Count))
system.cpu.dcache.overallAvgMshrMissLatency::total 36034.770454                       # average overall mshr miss latency ((Tick/Count))
system.cpu.dcache.replacements                 626019                       # number of replacements (Count)
system.cpu.dcache.LoadLockedReq.hits::cpu.data            2                       # number of LoadLockedReq hits (Count)
system.cpu.dcache.LoadLockedReq.hits::total            2                       # number of LoadLockedReq hits (Count)
system.cpu.dcache.LoadLockedReq.misses::cpu.data            2                       # number of LoadLockedReq misses (Count)
system.cpu.dcache.LoadLockedReq.misses::total            2                       # number of LoadLockedReq misses (Count)
system.cpu.dcache.LoadLockedReq.missLatency::cpu.data       164000                       # number of LoadLockedReq miss ticks (Tick)
system.cpu.dcache.LoadLockedReq.missLatency::total       164000                       # number of LoadLockedReq miss ticks (Tick)
system.cpu.dcache.LoadLockedReq.accesses::cpu.data            4                       # number of LoadLockedReq accesses(hits+misses) (Count)
system.cpu.dcache.LoadLockedReq.accesses::total            4                       # number of LoadLockedReq accesses(hits+misses) (Count)
system.cpu.dcache.LoadLockedReq.missRate::cpu.data     0.500000                       # miss rate for LoadLockedReq accesses (Ratio)
system.cpu.dcache.LoadLockedReq.missRate::total     0.500000                       # miss rate for LoadLockedReq accesses (Ratio)
system.cpu.dcache.LoadLockedReq.avgMissLatency::cpu.data        82000                       # average LoadLockedReq miss latency ((Tick/Count))
system.cpu.dcache.LoadLockedReq.avgMissLatency::total        82000                       # average LoadLockedReq miss latency ((Tick/Count))
system.cpu.dcache.LoadLockedReq.mshrMisses::cpu.data            2                       # number of LoadLockedReq MSHR misses (Count)
system.cpu.dcache.LoadLockedReq.mshrMisses::total            2                       # number of LoadLockedReq MSHR misses (Count)
system.cpu.dcache.LoadLockedReq.mshrMissLatency::cpu.data       162000                       # number of LoadLockedReq MSHR miss ticks (Tick)
system.cpu.dcache.LoadLockedReq.mshrMissLatency::total       162000                       # number of LoadLockedReq MSHR miss ticks (Tick)
system.cpu.dcache.LoadLockedReq.mshrMissRate::cpu.data     0.500000                       # mshr miss rate for LoadLockedReq accesses (Ratio)
system.cpu.dcache.LoadLockedReq.mshrMissRate::total     0.500000                       # mshr miss rate for LoadLockedReq accesses (Ratio)
system.cpu.dcache.LoadLockedReq.avgMshrMissLatency::cpu.data        81000                       # average LoadLockedReq mshr miss latency ((Tick/Count))
system.cpu.dcache.LoadLockedReq.avgMshrMissLatency::total        81000                       # average LoadLockedReq mshr miss latency ((Tick/Count))
system.cpu.dcache.ReadReq.hits::cpu.data     45360521                       # number of ReadReq hits (Count)
system.cpu.dcache.ReadReq.hits::total        45360521                       # number of ReadReq hits (Count)
system.cpu.dcache.ReadReq.misses::cpu.data       340012                       # number of ReadReq misses (Count)
system.cpu.dcache.ReadReq.misses::total        340012                       # number of ReadReq misses (Count)
system.cpu.dcache.ReadReq.missLatency::cpu.data   9083911000                       # number of ReadReq miss ticks (Tick)
system.cpu.dcache.ReadReq.missLatency::total   9083911000                       # number of ReadReq miss ticks (Tick)
system.cpu.dcache.ReadReq.accesses::cpu.data     45700533                       # number of ReadReq accesses(hits+misses) (Count)
system.cpu.dcache.ReadReq.accesses::total     45700533                       # number of ReadReq accesses(hits+misses) (Count)
system.cpu.dcache.ReadReq.missRate::cpu.data     0.007440                       # miss rate for ReadReq accesses (Ratio)
system.cpu.dcache.ReadReq.missRate::total     0.007440                       # miss rate for ReadReq accesses (Ratio)
system.cpu.dcache.ReadReq.avgMissLatency::cpu.data 26716.442361                       # average ReadReq miss latency ((Tick/Count))
system.cpu.dcache.ReadReq.avgMissLatency::total 26716.442361                       # average ReadReq miss latency ((Tick/Count))
system.cpu.dcache.ReadReq.mshrHits::cpu.data            8                       # number of ReadReq MSHR hits (Count)
system.cpu.dcache.ReadReq.mshrHits::total            8                       # number of ReadReq MSHR hits (Count)
system.cpu.dcache.ReadReq.mshrMisses::cpu.data       340004                       # number of ReadReq MSHR misses (Count)
system.cpu.dcache.ReadReq.mshrMisses::total       340004                       # number of ReadReq MSHR misses (Count)
system.cpu.dcache.ReadReq.mshrMissLatency::cpu.data   8743408500                       # number of ReadReq MSHR miss ticks (Tick)
system.cpu.dcache.ReadReq.mshrMissLatency::total   8743408500                       # number of ReadReq MSHR miss ticks (Tick)
system.cpu.dcache.ReadReq.mshrMissRate::cpu.data     0.007440                       # mshr miss rate for ReadReq accesses (Ratio)
system.cpu.dcache.ReadReq.mshrMissRate::total     0.007440                       # mshr miss rate for ReadReq accesses (Ratio)
system.cpu.dcache.ReadReq.avgMshrMissLatency::cpu.data 25715.604816                       # average ReadReq mshr miss latency ((Tick/Count))
system.cpu.dcache.ReadReq.avgMshrMissLatency::total 25715.604816                       # average ReadReq mshr miss latency ((Tick/Count))
system.cpu.dcache.StoreCondReq.hits::cpu.data            4                       # number of StoreCondReq hits (Count)
system.cpu.dcache.StoreCondReq.hits::total            4                       # number of StoreCondReq hits (Count)
system.cpu.dcache.StoreCondReq.accesses::cpu.data            4                       # number of StoreCondReq accesses(hits+misses) (Count)
system.cpu.dcache.StoreCondReq.accesses::total            4                       # number of StoreCondReq accesses(hits+misses) (Count)
system.cpu.dcache.SwapReq.hits::cpu.data           34                       # number of SwapReq hits (Count)
system.cpu.dcache.SwapReq.hits::total              34                       # number of SwapReq hits (Count)
system.cpu.dcache.SwapReq.accesses::cpu.data           34                       # number of SwapReq accesses(hits+misses) (Count)
system.cpu.dcache.SwapReq.accesses::total           34                       # number of SwapReq accesses(hits+misses) (Count)
system.cpu.dcache.WriteLineReq.misses::cpu.data            7                       # number of WriteLineReq misses (Count)
system.cpu.dcache.WriteLineReq.misses::total            7                       # number of WriteLineReq misses (Count)
system.cpu.dcache.WriteLineReq.missLatency::cpu.data       220000                       # number of WriteLineReq miss ticks (Tick)
system.cpu.dcache.WriteLineReq.missLatency::total       220000                       # number of WriteLineReq miss ticks (Tick)
system.cpu.dcache.WriteLineReq.accesses::cpu.data            7                       # number of WriteLineReq accesses(hits+misses) (Count)
system.cpu.dcache.WriteLineReq.accesses::total            7                       # number of WriteLineReq accesses(hits+misses) (Count)
system.cpu.dcache.WriteLineReq.missRate::cpu.data            1                       # miss rate for WriteLineReq accesses (Ratio)
system.cpu.dcache.WriteLineReq.missRate::total            1                       # miss rate for WriteLineReq accesses (Ratio)
system.cpu.dcache.WriteLineReq.avgMissLatency::cpu.data 31428.571429                       # average WriteLineReq miss latency ((Tick/Count))
system.cpu.dcache.WriteLineReq.avgMissLatency::total 31428.571429                       # average WriteLineReq miss latency ((Tick/Count))
system.cpu.dcache.WriteLineReq.mshrMisses::cpu.data            7                       # number of WriteLineReq MSHR misses (Count)
system.cpu.dcache.WriteLineReq.mshrMisses::total            7                       # number of WriteLineReq MSHR misses (Count)
system.cpu.dcache.WriteLineReq.mshrMissLatency::cpu.data       213000                       # number of WriteLineReq MSHR miss ticks (Tick)
system.cpu.dcache.WriteLineReq.mshrMissLatency::total       213000                       # number of WriteLineReq MSHR miss ticks (Tick)
system.cpu.dcache.WriteLineReq.mshrMissRate::cpu.data            1                       # mshr miss rate for WriteLineReq accesses (Ratio)
system.cpu.dcache.WriteLineReq.mshrMissRate::total            1                       # mshr miss rate for WriteLineReq accesses (Ratio)
system.cpu.dcache.WriteLineReq.avgMshrMissLatency::cpu.data 30428.571429                       # average WriteLineReq mshr miss latency ((Tick/Count))
system.cpu.dcache.WriteLineReq.avgMshrMissLatency::total 30428.571429                       # average WriteLineReq mshr miss latency ((Tick/Count))
system.cpu.dcache.WriteReq.hits::cpu.data     12501276                       # number of WriteReq hits (Count)
system.cpu.dcache.WriteReq.hits::total       12501276                       # number of WriteReq hits (Count)
system.cpu.dcache.WriteReq.misses::cpu.data       350026                       # number of WriteReq misses (Count)
system.cpu.dcache.WriteReq.misses::total       350026                       # number of WriteReq misses (Count)
system.cpu.dcache.WriteReq.missLatency::cpu.data  18441625000                       # number of WriteReq miss ticks (Tick)
system.cpu.dcache.WriteReq.missLatency::total  18441625000                       # number of WriteReq miss ticks (Tick)
system.cpu.dcache.WriteReq.accesses::cpu.data     12851302                       # number of WriteReq accesses(hits+misses) (Count)
system.cpu.dcache.WriteReq.accesses::total     12851302                       # number of WriteReq accesses(hits+misses) (Count)
system.cpu.dcache.WriteReq.missRate::cpu.data     0.027237                       # miss rate for WriteReq accesses (Ratio)
system.cpu.dcache.WriteReq.missRate::total     0.027237                       # miss rate for WriteReq accesses (Ratio)
system.cpu.dcache.WriteReq.avgMissLatency::cpu.data 52686.443293                       # average WriteReq miss latency ((Tick/Count))
system.cpu.dcache.WriteReq.avgMissLatency::total 52686.443293                       # average WriteReq miss latency ((Tick/Count))
system.cpu.dcache.WriteReq.mshrHits::cpu.data        62996                       # number of WriteReq MSHR hits (Count)
system.cpu.dcache.WriteReq.mshrHits::total        62996                       # number of WriteReq MSHR hits (Count)
system.cpu.dcache.WriteReq.mshrMisses::cpu.data       287030                       # number of WriteReq MSHR misses (Count)
system.cpu.dcache.WriteReq.mshrMisses::total       287030                       # number of WriteReq MSHR misses (Count)
system.cpu.dcache.WriteReq.mshrMissLatency::cpu.data  13851657000                       # number of WriteReq MSHR miss ticks (Tick)
system.cpu.dcache.WriteReq.mshrMissLatency::total  13851657000                       # number of WriteReq MSHR miss ticks (Tick)
system.cpu.dcache.WriteReq.mshrMissRate::cpu.data     0.022335                       # mshr miss rate for WriteReq accesses (Ratio)
system.cpu.dcache.WriteReq.mshrMissRate::total     0.022335                       # mshr miss rate for WriteReq accesses (Ratio)
system.cpu.dcache.WriteReq.avgMshrMissLatency::cpu.data 48258.568791                       # average WriteReq mshr miss latency ((Tick/Count))
system.cpu.dcache.WriteReq.avgMshrMissLatency::total 48258.568791                       # average WriteReq mshr miss latency ((Tick/Count))
system.cpu.dcache.power_state.pwrStateResidencyTicks::UNDEFINED  85888644000                       # Cumulative time (in ticks) in various power states (Tick)
system.cpu.dcache.tags.tagsInUse          1010.331931                       # Average ticks per tags in use ((Tick/Count))
system.cpu.dcache.tags.totalRefs             58488880                       # Total number of references to valid blocks. (Count)
system.cpu.dcache.tags.sampledRefs             627043                       # Sample count of references to valid blocks. (Count)
system.cpu.dcache.tags.avgRefs              93.277303                       # Average number of references to valid blocks. ((Count/Count))
system.cpu.dcache.tags.warmupTick              177500                       # The tick when the warmup percentage was hit. (Tick)
system.cpu.dcache.tags.occupancies::cpu.data  1010.331931                       # Average occupied blocks per tick, per requestor ((Count/Tick))
system.cpu.dcache.tags.avgOccs::cpu.data     0.986652                       # Average percentage of cache occupancy ((Ratio/Tick))
system.cpu.dcache.tags.avgOccs::total        0.986652                       # Average percentage of cache occupancy ((Ratio/Tick))
system.cpu.dcache.tags.occupanciesTaskId::1024         1024                       # Occupied blocks per task id (Count)
system.cpu.dcache.tags.ageTaskId_1024::0            5                       # Occupied blocks per task id, per block age (Count)
system.cpu.dcache.tags.ageTaskId_1024::1          283                       # Occupied blocks per task id, per block age (Count)
system.cpu.dcache.tags.ageTaskId_1024::2          733                       # Occupied blocks per task id, per block age (Count)
system.cpu.dcache.tags.ageTaskId_1024::3            1                       # Occupied blocks per task id, per block age (Count)
system.cpu.dcache.tags.ageTaskId_1024::4            2                       # Occupied blocks per task id, per block age (Count)
system.cpu.dcache.tags.ratioOccsTaskId::1024            1                       # Ratio of occupied blocks and all blocks, per task id (Ratio)
system.cpu.dcache.tags.tagAccesses         7495268195                       # Number of tag accesses (Count)
system.cpu.dcache.tags.dataAccesses        7495268195                       # Number of data accesses (Count)
system.cpu.dcache.tags.power_state.pwrStateResidencyTicks::UNDEFINED  85888644000                       # Cumulative time (in ticks) in various power states (Tick)
system.cpu.fetch2.intInstructions            35752567                       # Number of integer instructions successfully decoded (Count)
system.cpu.fetch2.fpInstructions                    0                       # Number of floating point instructions successfully decoded (Count)
system.cpu.fetch2.vecInstructions                 101                       # Number of SIMD instructions successfully decoded (Count)
system.cpu.fetch2.loadInstructions           49186752                       # Number of memory load instructions successfully decoded (Count)
system.cpu.fetch2.storeInstructions          12860661                       # Number of memory store instructions successfully decoded (Count)
system.cpu.fetch2.amoInstructions                  40                       # Number of memory atomic instructions successfully decoded (Count)
system.cpu.icache.demandHits::cpu.inst       14975650                       # number of demand (read+write) hits (Count)
system.cpu.icache.demandHits::total          14975650                       # number of demand (read+write) hits (Count)
system.cpu.icache.overallHits::cpu.inst      14975650                       # number of overall hits (Count)
system.cpu.icache.overallHits::total         14975650                       # number of overall hits (Count)
system.cpu.icache.demandMisses::cpu.inst          909                       # number of demand (read+write) misses (Count)
system.cpu.icache.demandMisses::total             909                       # number of demand (read+write) misses (Count)
system.cpu.icache.overallMisses::cpu.inst          909                       # number of overall misses (Count)
system.cpu.icache.overallMisses::total            909                       # number of overall misses (Count)
system.cpu.icache.demandMissLatency::cpu.inst     70447000                       # number of demand (read+write) miss ticks (Tick)
system.cpu.icache.demandMissLatency::total     70447000                       # number of demand (read+write) miss ticks (Tick)
system.cpu.icache.overallMissLatency::cpu.inst     70447000                       # number of overall miss ticks (Tick)
system.cpu.icache.overallMissLatency::total     70447000                       # number of overall miss ticks (Tick)
system.cpu.icache.demandAccesses::cpu.inst     14976559                       # number of demand (read+write) accesses (Count)
system.cpu.icache.demandAccesses::total      14976559                       # number of demand (read+write) accesses (Count)
system.cpu.icache.overallAccesses::cpu.inst     14976559                       # number of overall (read+write) accesses (Count)
system.cpu.icache.overallAccesses::total     14976559                       # number of overall (read+write) accesses (Count)
system.cpu.icache.demandMissRate::cpu.inst     0.000061                       # miss rate for demand accesses (Ratio)
system.cpu.icache.demandMissRate::total      0.000061                       # miss rate for demand accesses (Ratio)
system.cpu.icache.overallMissRate::cpu.inst     0.000061                       # miss rate for overall accesses (Ratio)
system.cpu.icache.overallMissRate::total     0.000061                       # miss rate for overall accesses (Ratio)
system.cpu.icache.demandAvgMissLatency::cpu.inst 77499.449945                       # average overall miss latency in ticks ((Tick/Count))
system.cpu.icache.demandAvgMissLatency::total 77499.449945                       # average overall miss latency in ticks ((Tick/Count))
system.cpu.icache.overallAvgMissLatency::cpu.inst 77499.449945                       # average overall miss latency ((Tick/Count))
system.cpu.icache.overallAvgMissLatency::total 77499.449945                       # average overall miss latency ((Tick/Count))
system.cpu.icache.blockedCycles::no_mshrs            0                       # number of cycles access was blocked (Cycle)
system.cpu.icache.blockedCycles::no_targets            0                       # number of cycles access was blocked (Cycle)
system.cpu.icache.blockedCauses::no_mshrs            0                       # number of times access was blocked (Count)
system.cpu.icache.blockedCauses::no_targets            0                       # number of times access was blocked (Count)
system.cpu.icache.avgBlocked::no_mshrs            nan                       # average number of cycles each access was blocked ((Cycle/Count))
system.cpu.icache.avgBlocked::no_targets          nan                       # average number of cycles each access was blocked ((Cycle/Count))
system.cpu.icache.writebacks::writebacks          454                       # number of writebacks (Count)
system.cpu.icache.writebacks::total               454                       # number of writebacks (Count)
system.cpu.icache.demandMshrMisses::cpu.inst          909                       # number of demand (read+write) MSHR misses (Count)
system.cpu.icache.demandMshrMisses::total          909                       # number of demand (read+write) MSHR misses (Count)
system.cpu.icache.overallMshrMisses::cpu.inst          909                       # number of overall MSHR misses (Count)
system.cpu.icache.overallMshrMisses::total          909                       # number of overall MSHR misses (Count)
system.cpu.icache.demandMshrMissLatency::cpu.inst     69538000                       # number of demand (read+write) MSHR miss ticks (Tick)
system.cpu.icache.demandMshrMissLatency::total     69538000                       # number of demand (read+write) MSHR miss ticks (Tick)
system.cpu.icache.overallMshrMissLatency::cpu.inst     69538000                       # number of overall MSHR miss ticks (Tick)
system.cpu.icache.overallMshrMissLatency::total     69538000                       # number of overall MSHR miss ticks (Tick)
system.cpu.icache.demandMshrMissRate::cpu.inst     0.000061                       # mshr miss ratio for demand accesses (Ratio)
system.cpu.icache.demandMshrMissRate::total     0.000061                       # mshr miss ratio for demand accesses (Ratio)
system.cpu.icache.overallMshrMissRate::cpu.inst     0.000061                       # mshr miss ratio for overall accesses (Ratio)
system.cpu.icache.overallMshrMissRate::total     0.000061                       # mshr miss ratio for overall accesses (Ratio)
system.cpu.icache.demandAvgMshrMissLatency::cpu.inst 76499.449945                       # average overall mshr miss latency ((Tick/Count))
system.cpu.icache.demandAvgMshrMissLatency::total 76499.449945                       # average overall mshr miss latency ((Tick/Count))
system.cpu.icache.overallAvgMshrMissLatency::cpu.inst 76499.449945                       # average overall mshr miss latency ((Tick/Count))
system.cpu.icache.overallAvgMshrMissLatency::total 76499.449945                       # average overall mshr miss latency ((Tick/Count))
system.cpu.icache.replacements                    454                       # number of replacements (Count)
system.cpu.icache.ReadReq.hits::cpu.inst     14975650                       # number of ReadReq hits (Count)
system.cpu.icache.ReadReq.hits::total        14975650                       # number of ReadReq hits (Count)
system.cpu.icache.ReadReq.misses::cpu.inst          909                       # number of ReadReq misses (Count)
system.cpu.icache.ReadReq.misses::total           909                       # number of ReadReq misses (Count)
system.cpu.icache.ReadReq.missLatency::cpu.inst     70447000                       # number of ReadReq miss ticks (Tick)
system.cpu.icache.ReadReq.missLatency::total     70447000                       # number of ReadReq miss ticks (Tick)
system.cpu.icache.ReadReq.accesses::cpu.inst     14976559                       # number of ReadReq accesses(hits+misses) (Count)
system.cpu.icache.ReadReq.accesses::total     14976559                       # number of ReadReq accesses(hits+misses) (Count)
system.cpu.icache.ReadReq.missRate::cpu.inst     0.000061                       # miss rate for ReadReq accesses (Ratio)
system.cpu.icache.ReadReq.missRate::total     0.000061                       # miss rate for ReadReq accesses (Ratio)
system.cpu.icache.ReadReq.avgMissLatency::cpu.inst 77499.449945                       # average ReadReq miss latency ((Tick/Count))
system.cpu.icache.ReadReq.avgMissLatency::total 77499.449945                       # average ReadReq miss latency ((Tick/Count))
system.cpu.icache.ReadReq.mshrMisses::cpu.inst          909                       # number of ReadReq MSHR misses (Count)
system.cpu.icache.ReadReq.mshrMisses::total          909                       # number of ReadReq MSHR misses (Count)
system.cpu.icache.ReadReq.mshrMissLatency::cpu.inst     69538000                       # number of ReadReq MSHR miss ticks (Tick)
system.cpu.icache.ReadReq.mshrMissLatency::total     69538000                       # number of ReadReq MSHR miss ticks (Tick)
system.cpu.icache.ReadReq.mshrMissRate::cpu.inst     0.000061                       # mshr miss rate for ReadReq accesses (Ratio)
system.cpu.icache.ReadReq.mshrMissRate::total     0.000061                       # mshr miss rate for ReadReq accesses (Ratio)
system.cpu.icache.ReadReq.avgMshrMissLatency::cpu.inst 76499.449945                       # average ReadReq mshr miss latency ((Tick/Count))
system.cpu.icache.ReadReq.avgMshrMissLatency::total 76499.449945                       # average ReadReq mshr miss latency ((Tick/Count))
system.cpu.icache.power_state.pwrStateResidencyTicks::UNDEFINED  85888644000                       # Cumulative time (in ticks) in various power states (Tick)
system.cpu.icache.tags.tagsInUse           435.081877                       # Average ticks per tags in use ((Tick/Count))
system.cpu.icache.tags.totalRefs             14976559                       # Total number of references to valid blocks. (Count)
system.cpu.icache.tags.sampledRefs                909                       # Sample count of references to valid blocks. (Count)
system.cpu.icache.tags.avgRefs           16475.862486                       # Average number of references to valid blocks. ((Count/Count))
system.cpu.icache.tags.warmupTick               87500                       # The tick when the warmup percentage was hit. (Tick)
system.cpu.icache.tags.occupancies::cpu.inst   435.081877                       # Average occupied blocks per tick, per requestor ((Count/Tick))
system.cpu.icache.tags.avgOccs::cpu.inst     0.849769                       # Average percentage of cache occupancy ((Ratio/Tick))
system.cpu.icache.tags.avgOccs::total        0.849769                       # Average percentage of cache occupancy ((Ratio/Tick))
system.cpu.icache.tags.occupanciesTaskId::1024          455                       # Occupied blocks per task id (Count)
system.cpu.icache.tags.ageTaskId_1024::4          455                       # Occupied blocks per task id, per block age (Count)
system.cpu.icache.tags.ratioOccsTaskId::1024     0.888672                       # Ratio of occupied blocks and all blocks, per task id (Ratio)
system.cpu.icache.tags.tagAccesses           29954027                       # Number of tag accesses (Count)
system.cpu.icache.tags.dataAccesses          29954027                       # Number of data accesses (Count)
system.cpu.icache.tags.power_state.pwrStateResidencyTicks::UNDEFINED  85888644000                       # Cumulative time (in ticks) in various power states (Tick)
system.cpu.mmu.alignFaults                          0                       # Number of MMU faults due to alignment restrictions (Count)
system.cpu.mmu.prefetchFaults                       0                       # Number of MMU faults due to prefetch (Count)
system.cpu.mmu.domainFaults                         0                       # Number of MMU faults due to domain restrictions (Count)
system.cpu.mmu.permsFaults                          0                       # Number of MMU faults due to permissions restrictions (Count)
system.cpu.mmu.dtb.readHits                         0                       # Read hits (Count)
system.cpu.mmu.dtb.readMisses                       0                       # Read misses (Count)
system.cpu.mmu.dtb.writeHits                        0                       # Write hits (Count)
system.cpu.mmu.dtb.writeMisses                      0                       # Write misses (Count)
system.cpu.mmu.dtb.inserts                          0                       # Number of times an entry is inserted into the TLB (Count)
system.cpu.mmu.dtb.flushTlb                         0                       # Number of times complete TLB was flushed (Count)
system.cpu.mmu.dtb.flushTlbMva                      0                       # Number of times TLB was flushed by MVA (Count)
system.cpu.mmu.dtb.flushTlbMvaAsid                  0                       # Number of times TLB was flushed by MVA & ASID (Count)
system.cpu.mmu.dtb.flushTlbAsid                     0                       # Number of times TLB was flushed by ASID (Count)
system.cpu.mmu.dtb.flushedEntries                   0                       # Number of entries that have been flushed from TLB (Count)
system.cpu.mmu.dtb.readAccesses                     0                       # Read accesses (Count)
system.cpu.mmu.dtb.writeAccesses                    0                       # Write accesses (Count)
system.cpu.mmu.dtb.hits                             0                       # Total TLB (inst and data) hits (Count)
system.cpu.mmu.dtb.misses                           0                       # Total TLB (inst and data) misses (Count)
system.cpu.mmu.dtb.accesses                         0                       # Total TLB (inst and data) accesses (Count)
system.cpu.mmu.dtb_walker.walks                     0                       # Table walker walks requested (Count)
system.cpu.mmu.dtb_walker.requestOrigin_Requested::Data            0                       # Table walker requests started/completed, data/inst (Count)
system.cpu.mmu.dtb_walker.requestOrigin_Requested::Inst            0                       # Table walker requests started/completed, data/inst (Count)
system.cpu.mmu.dtb_walker.requestOrigin_Requested::total            0                       # Table walker requests started/completed, data/inst (Count)
system.cpu.mmu.dtb_walker.requestOrigin_Completed::Data            0                       # Table walker requests started/completed, data/inst (Count)
system.cpu.mmu.dtb_walker.requestOrigin_Completed::Inst            0                       # Table walker requests started/completed, data/inst (Count)
system.cpu.mmu.dtb_walker.requestOrigin_Completed::total            0                       # Table walker requests started/completed, data/inst (Count)
system.cpu.mmu.dtb_walker.requestOrigin::total            0                       # Table walker requests started/completed, data/inst (Count)
system.cpu.mmu.dtb_walker.power_state.pwrStateResidencyTicks::UNDEFINED  85888644000                       # Cumulative time (in ticks) in various power states (Tick)
system.cpu.mmu.itb.instHits                         0                       # Inst hits (Count)
system.cpu.mmu.itb.instMisses                       0                       # Inst misses (Count)
system.cpu.mmu.itb.inserts                          0                       # Number of times an entry is inserted into the TLB (Count)
system.cpu.mmu.itb.flushTlb                         0                       # Number of times complete TLB was flushed (Count)
system.cpu.mmu.itb.flushTlbMva                      0                       # Number of times TLB was flushed by MVA (Count)
system.cpu.mmu.itb.flushTlbMvaAsid                  0                       # Number of times TLB was flushed by MVA & ASID (Count)
system.cpu.mmu.itb.flushTlbAsid                     0                       # Number of times TLB was flushed by ASID (Count)
system.cpu.mmu.itb.flushedEntries                   0                       # Number of entries that have been flushed from TLB (Count)
system.cpu.mmu.itb.instAccesses                     0                       # Inst accesses (Count)
system.cpu.mmu.itb.hits                             0                       # Total TLB (inst and data) hits (Count)
system.cpu.mmu.itb.misses                           0                       # Total TLB (inst and data) misses (Count)
system.cpu.mmu.itb.accesses                         0                       # Total TLB (inst and data) accesses (Count)
system.cpu.mmu.itb_walker.walks                     0                       # Table walker walks requested (Count)
system.cpu.mmu.itb_walker.requestOrigin_Requested::Data            0                       # Table walker requests started/completed, data/inst (Count)
system.cpu.mmu.itb_walker.requestOrigin_Requested::Inst            0                       # Table walker requests started/completed, data/inst (Count)
system.cpu.mmu.itb_walker.requestOrigin_Requested::total            0                       # Table walker requests started/completed, data/inst (Count)
system.cpu.mmu.itb_walker.requestOrigin_Completed::Data            0                       # Table walker requests started/completed, data/inst (Count)
system.cpu.mmu.itb_walker.requestOrigin_Completed::Inst            0                       # Table walker requests started/completed, data/inst (Count)
system.cpu.mmu.itb_walker.requestOrigin_Completed::total            0                       # Table walker requests started/completed, data/inst (Count)
system.cpu.mmu.itb_walker.requestOrigin::total            0                       # Table walker requests started/completed, data/inst (Count)
system.cpu.mmu.itb_walker.power_state.pwrStateResidencyTicks::UNDEFINED  85888644000                       # Cumulative time (in ticks) in various power states (Tick)
system.cpu.mmu.l2_shared.instHits                   0                       # Inst hits (Count)
system.cpu.mmu.l2_shared.instMisses                 0                       # Inst misses (Count)
system.cpu.mmu.l2_shared.inserts                    0                       # Number of times an entry is inserted into the TLB (Count)
system.cpu.mmu.l2_shared.flushTlb                   0                       # Number of times complete TLB was flushed (Count)
system.cpu.mmu.l2_shared.flushTlbMva                0                       # Number of times TLB was flushed by MVA (Count)
system.cpu.mmu.l2_shared.flushTlbMvaAsid            0                       # Number of times TLB was flushed by MVA & ASID (Count)
system.cpu.mmu.l2_shared.flushTlbAsid               0                       # Number of times TLB was flushed by ASID (Count)
system.cpu.mmu.l2_shared.flushedEntries             0                       # Number of entries that have been flushed from TLB (Count)
system.cpu.mmu.l2_shared.instAccesses               0                       # Inst accesses (Count)
system.cpu.mmu.l2_shared.hits                       0                       # Total TLB (inst and data) hits (Count)
system.cpu.mmu.l2_shared.misses                     0                       # Total TLB (inst and data) misses (Count)
system.cpu.mmu.l2_shared.accesses                   0                       # Total TLB (inst and data) accesses (Count)
system.cpu.mmu.stage2_dtb.readHits                  0                       # Read hits (Count)
system.cpu.mmu.stage2_dtb.readMisses                0                       # Read misses (Count)
system.cpu.mmu.stage2_dtb.writeHits                 0                       # Write hits (Count)
system.cpu.mmu.stage2_dtb.writeMisses               0                       # Write misses (Count)
system.cpu.mmu.stage2_dtb.inserts                   0                       # Number of times an entry is inserted into the TLB (Count)
system.cpu.mmu.stage2_dtb.flushTlb                  0                       # Number of times complete TLB was flushed (Count)
system.cpu.mmu.stage2_dtb.flushTlbMva               0                       # Number of times TLB was flushed by MVA (Count)
system.cpu.mmu.stage2_dtb.flushTlbMvaAsid            0                       # Number of times TLB was flushed by MVA & ASID (Count)
system.cpu.mmu.stage2_dtb.flushTlbAsid              0                       # Number of times TLB was flushed by ASID (Count)
system.cpu.mmu.stage2_dtb.flushedEntries            0                       # Number of entries that have been flushed from TLB (Count)
system.cpu.mmu.stage2_dtb.readAccesses              0                       # Read accesses (Count)
system.cpu.mmu.stage2_dtb.writeAccesses             0                       # Write accesses (Count)
system.cpu.mmu.stage2_dtb.hits                      0                       # Total TLB (inst and data) hits (Count)
system.cpu.mmu.stage2_dtb.misses                    0                       # Total TLB (inst and data) misses (Count)
system.cpu.mmu.stage2_dtb.accesses                  0                       # Total TLB (inst and data) accesses (Count)
system.cpu.mmu.stage2_dtb_walker.walks              0                       # Table walker walks requested (Count)
system.cpu.mmu.stage2_dtb_walker.requestOrigin_Requested::Data            0                       # Table walker requests started/completed, data/inst (Count)
system.cpu.mmu.stage2_dtb_walker.requestOrigin_Requested::Inst            0                       # Table walker requests started/completed, data/inst (Count)
system.cpu.mmu.stage2_dtb_walker.requestOrigin_Requested::total            0                       # Table walker requests started/completed, data/inst (Count)
system.cpu.mmu.stage2_dtb_walker.requestOrigin_Completed::Data            0                       # Table walker requests started/completed, data/inst (Count)
system.cpu.mmu.stage2_dtb_walker.requestOrigin_Completed::Inst            0                       # Table walker requests started/completed, data/inst (Count)
system.cpu.mmu.stage2_dtb_walker.requestOrigin_Completed::total            0                       # Table walker requests started/completed, data/inst (Count)
system.cpu.mmu.stage2_dtb_walker.requestOrigin::total            0                       # Table walker requests started/completed, data/inst (Count)
system.cpu.mmu.stage2_dtb_walker.power_state.pwrStateResidencyTicks::UNDEFINED  85888644000                       # Cumulative time (in ticks) in various power states (Tick)
system.cpu.mmu.stage2_itb.instHits                  0                       # Inst hits (Count)
system.cpu.mmu.stage2_itb.instMisses                0                       # Inst misses (Count)
system.cpu.mmu.stage2_itb.inserts                   0                       # Number of times an entry is inserted into the TLB (Count)
system.cpu.mmu.stage2_itb.flushTlb                  0                       # Number of times complete TLB was flushed (Count)
system.cpu.mmu.stage2_itb.flushTlbMva               0                       # Number of times TLB was flushed by MVA (Count)
system.cpu.mmu.stage2_itb.flushTlbMvaAsid            0                       # Number of times TLB was flushed by MVA & ASID (Count)
system.cpu.mmu.stage2_itb.flushTlbAsid              0                       # Number of times TLB was flushed by ASID (Count)
system.cpu.mmu.stage2_itb.flushedEntries            0                       # Number of entries that have been flushed from TLB (Count)
system.cpu.mmu.stage2_itb.instAccesses              0                       # Inst accesses (Count)
system.cpu.mmu.stage2_itb.hits                      0                       # Total TLB (inst and data) hits (Count)
system.cpu.mmu.stage2_itb.misses                    0                       # Total TLB (inst and data) misses (Count)
system.cpu.mmu.stage2_itb.accesses                  0                       # Total TLB (inst and data) accesses (Count)
system.cpu.mmu.stage2_itb_walker.walks              0                       # Table walker walks requested (Count)
system.cpu.mmu.stage2_itb_walker.requestOrigin_Requested::Data            0                       # Table walker requests started/completed, data/inst (Count)
system.cpu.mmu.stage2_itb_walker.requestOrigin_Requested::Inst            0                       # Table walker requests started/completed, data/inst (Count)
system.cpu.mmu.stage2_itb_walker.requestOrigin_Requested::total            0                       # Table walker requests started/completed, data/inst (Count)
system.cpu.mmu.stage2_itb_walker.requestOrigin_Completed::Data            0                       # Table walker requests started/completed, data/inst (Count)
system.cpu.mmu.stage2_itb_walker.requestOrigin_Completed::Inst            0                       # Table walker requests started/completed, data/inst (Count)
system.cpu.mmu.stage2_itb_walker.requestOrigin_Completed::total            0                       # Table walker requests started/completed, data/inst (Count)
system.cpu.mmu.stage2_itb_walker.requestOrigin::total            0                       # Table walker requests started/completed, data/inst (Count)
system.cpu.mmu.stage2_itb_walker.power_state.pwrStateResidencyTicks::UNDEFINED  85888644000                       # Cumulative time (in ticks) in various power states (Tick)
system.cpu.power_state.pwrStateResidencyTicks::ON  85888644000                       # Cumulative time (in ticks) in various power states (Tick)
system.cpu.thread_0.numInsts                100000000                       # Number of Instructions committed (Count)
system.cpu.thread_0.numOps                  100677219                       # Number of Ops committed (Count)
system.cpu.thread_0.numMemRefs                      0                       # Number of Memory References (Count)
system.cpu.workload.numSyscalls                    84                       # Number of system calls (Count)
system.cpu_clk_domain.clock                       500                       # Clock period in ticks (Tick)
system.cpu_voltage_domain.voltage                   1                       # Voltage in Volts (Volt)
system.l2.demandHits::cpu.inst                     51                       # number of demand (read+write) hits (Count)
system.l2.demandHits::cpu.data                 417387                       # number of demand (read+write) hits (Count)
system.l2.demandHits::total                    417438                       # number of demand (read+write) hits (Count)
system.l2.overallHits::cpu.inst                    51                       # number of overall hits (Count)
system.l2.overallHits::cpu.data                417387                       # number of overall hits (Count)
system.l2.overallHits::total                   417438                       # number of overall hits (Count)
system.l2.demandMisses::cpu.inst                  858                       # number of demand (read+write) misses (Count)
system.l2.demandMisses::cpu.data               209649                       # number of demand (read+write) misses (Count)
system.l2.demandMisses::total                  210507                       # number of demand (read+write) misses (Count)
system.l2.overallMisses::cpu.inst                 858                       # number of overall misses (Count)
system.l2.overallMisses::cpu.data              209649                       # number of overall misses (Count)
system.l2.overallMisses::total                 210507                       # number of overall misses (Count)
system.l2.demandMissLatency::cpu.inst        67637000                       # number of demand (read+write) miss ticks (Tick)
system.l2.demandMissLatency::cpu.data     17262621500                       # number of demand (read+write) miss ticks (Tick)
system.l2.demandMissLatency::total        17330258500                       # number of demand (read+write) miss ticks (Tick)
system.l2.overallMissLatency::cpu.inst       67637000                       # number of overall miss ticks (Tick)
system.l2.overallMissLatency::cpu.data    17262621500                       # number of overall miss ticks (Tick)
system.l2.overallMissLatency::total       17330258500                       # number of overall miss ticks (Tick)
system.l2.demandAccesses::cpu.inst                909                       # number of demand (read+write) accesses (Count)
system.l2.demandAccesses::cpu.data             627036                       # number of demand (read+write) accesses (Count)
system.l2.demandAccesses::total                627945                       # number of demand (read+write) accesses (Count)
system.l2.overallAccesses::cpu.inst               909                       # number of overall (read+write) accesses (Count)
system.l2.overallAccesses::cpu.data            627036                       # number of overall (read+write) accesses (Count)
system.l2.overallAccesses::total               627945                       # number of overall (read+write) accesses (Count)
system.l2.demandMissRate::cpu.inst           0.943894                       # miss rate for demand accesses (Ratio)
system.l2.demandMissRate::cpu.data           0.334349                       # miss rate for demand accesses (Ratio)
system.l2.demandMissRate::total              0.335232                       # miss rate for demand accesses (Ratio)
system.l2.overallMissRate::cpu.inst          0.943894                       # miss rate for overall accesses (Ratio)
system.l2.overallMissRate::cpu.data          0.334349                       # miss rate for overall accesses (Ratio)
system.l2.overallMissRate::total             0.335232                       # miss rate for overall accesses (Ratio)
system.l2.demandAvgMissLatency::cpu.inst 78831.002331                       # average overall miss latency in ticks ((Tick/Count))
system.l2.demandAvgMissLatency::cpu.data 82340.585932                       # average overall miss latency in ticks ((Tick/Count))
system.l2.demandAvgMissLatency::total    82326.281311                       # average overall miss latency in ticks ((Tick/Count))
system.l2.overallAvgMissLatency::cpu.inst 78831.002331                       # average overall miss latency ((Tick/Count))
system.l2.overallAvgMissLatency::cpu.data 82340.585932                       # average overall miss latency ((Tick/Count))
system.l2.overallAvgMissLatency::total   82326.281311                       # average overall miss latency ((Tick/Count))
system.l2.blockedCycles::no_mshrs                   0                       # number of cycles access was blocked (Cycle)
system.l2.blockedCycles::no_targets                 0                       # number of cycles access was blocked (Cycle)
system.l2.blockedCauses::no_mshrs                   0                       # number of times access was blocked (Count)
system.l2.blockedCauses::no_targets                 0                       # number of times access was blocked (Count)
system.l2.avgBlocked::no_mshrs                    nan                       # average number of cycles each access was blocked ((Cycle/Count))
system.l2.avgBlocked::no_targets                  nan                       # average number of cycles each access was blocked ((Cycle/Count))
system.l2.writebacks::writebacks               119010                       # number of writebacks (Count)
system.l2.writebacks::total                    119010                       # number of writebacks (Count)
system.l2.demandMshrMisses::cpu.inst              858                       # number of demand (read+write) MSHR misses (Count)
system.l2.demandMshrMisses::cpu.data           209649                       # number of demand (read+write) MSHR misses (Count)
system.l2.demandMshrMisses::total              210507                       # number of demand (read+write) MSHR misses (Count)
system.l2.overallMshrMisses::cpu.inst             858                       # number of overall MSHR misses (Count)
system.l2.overallMshrMisses::cpu.data          209649                       # number of overall MSHR misses (Count)
system.l2.overallMshrMisses::total             210507                       # number of overall MSHR misses (Count)
system.l2.demandMshrMissLatency::cpu.inst     59057000                       # number of demand (read+write) MSHR miss ticks (Tick)
system.l2.demandMshrMissLatency::cpu.data  15166131500                       # number of demand (read+write) MSHR miss ticks (Tick)
system.l2.demandMshrMissLatency::total    15225188500                       # number of demand (read+write) MSHR miss ticks (Tick)
system.l2.overallMshrMissLatency::cpu.inst     59057000                       # number of overall MSHR miss ticks (Tick)
system.l2.overallMshrMissLatency::cpu.data  15166131500                       # number of overall MSHR miss ticks (Tick)
system.l2.overallMshrMissLatency::total   15225188500                       # number of overall MSHR miss ticks (Tick)
system.l2.demandMshrMissRate::cpu.inst       0.943894                       # mshr miss ratio for demand accesses (Ratio)
system.l2.demandMshrMissRate::cpu.data       0.334349                       # mshr miss ratio for demand accesses (Ratio)
system.l2.demandMshrMissRate::total          0.335232                       # mshr miss ratio for demand accesses (Ratio)
system.l2.overallMshrMissRate::cpu.inst      0.943894                       # mshr miss ratio for overall accesses (Ratio)
system.l2.overallMshrMissRate::cpu.data      0.334349                       # mshr miss ratio for overall accesses (Ratio)
system.l2.overallMshrMissRate::total         0.335232                       # mshr miss ratio for overall accesses (Ratio)
system.l2.demandAvgMshrMissLatency::cpu.inst 68831.002331                       # average overall mshr miss latency ((Tick/Count))
system.l2.demandAvgMshrMissLatency::cpu.data 72340.585932                       # average overall mshr miss latency ((Tick/Count))
system.l2.demandAvgMshrMissLatency::total 72326.281311                       # average overall mshr miss latency ((Tick/Count))
system.l2.overallAvgMshrMissLatency::cpu.inst 68831.002331                       # average overall mshr miss latency ((Tick/Count))
system.l2.overallAvgMshrMissLatency::cpu.data 72340.585932                       # average overall mshr miss latency ((Tick/Count))
system.l2.overallAvgMshrMissLatency::total 72326.281311                       # average overall mshr miss latency ((Tick/Count))
system.l2.replacements                         178004                       # number of replacements (Count)
system.l2.InvalidateReq.misses::cpu.data            7                       # number of InvalidateReq misses (Count)
system.l2.InvalidateReq.misses::total               7                       # number of InvalidateReq misses (Count)
system.l2.InvalidateReq.accesses::cpu.data            7                       # number of InvalidateReq accesses(hits+misses) (Count)
system.l2.InvalidateReq.accesses::total             7                       # number of InvalidateReq accesses(hits+misses) (Count)
system.l2.InvalidateReq.missRate::cpu.data            1                       # miss rate for InvalidateReq accesses (Ratio)
system.l2.InvalidateReq.missRate::total             1                       # miss rate for InvalidateReq accesses (Ratio)
system.l2.InvalidateReq.mshrMisses::cpu.data            7                       # number of InvalidateReq MSHR misses (Count)
system.l2.InvalidateReq.mshrMisses::total            7                       # number of InvalidateReq MSHR misses (Count)
system.l2.InvalidateReq.mshrMissLatency::cpu.data       132500                       # number of InvalidateReq MSHR miss ticks (Tick)
system.l2.InvalidateReq.mshrMissLatency::total       132500                       # number of InvalidateReq MSHR miss ticks (Tick)
system.l2.InvalidateReq.mshrMissRate::cpu.data            1                       # mshr miss rate for InvalidateReq accesses (Ratio)
system.l2.InvalidateReq.mshrMissRate::total            1                       # mshr miss rate for InvalidateReq accesses (Ratio)
system.l2.InvalidateReq.avgMshrMissLatency::cpu.data 18928.571429                       # average InvalidateReq mshr miss latency ((Tick/Count))
system.l2.InvalidateReq.avgMshrMissLatency::total 18928.571429                       # average InvalidateReq mshr miss latency ((Tick/Count))
system.l2.ReadCleanReq.hits::cpu.inst              51                       # number of ReadCleanReq hits (Count)
system.l2.ReadCleanReq.hits::total                 51                       # number of ReadCleanReq hits (Count)
system.l2.ReadCleanReq.misses::cpu.inst           858                       # number of ReadCleanReq misses (Count)
system.l2.ReadCleanReq.misses::total              858                       # number of ReadCleanReq misses (Count)
system.l2.ReadCleanReq.missLatency::cpu.inst     67637000                       # number of ReadCleanReq miss ticks (Tick)
system.l2.ReadCleanReq.missLatency::total     67637000                       # number of ReadCleanReq miss ticks (Tick)
system.l2.ReadCleanReq.accesses::cpu.inst          909                       # number of ReadCleanReq accesses(hits+misses) (Count)
system.l2.ReadCleanReq.accesses::total            909                       # number of ReadCleanReq accesses(hits+misses) (Count)
system.l2.ReadCleanReq.missRate::cpu.inst     0.943894                       # miss rate for ReadCleanReq accesses (Ratio)
system.l2.ReadCleanReq.missRate::total       0.943894                       # miss rate for ReadCleanReq accesses (Ratio)
system.l2.ReadCleanReq.avgMissLatency::cpu.inst 78831.002331                       # average ReadCleanReq miss latency ((Tick/Count))
system.l2.ReadCleanReq.avgMissLatency::total 78831.002331                       # average ReadCleanReq miss latency ((Tick/Count))
system.l2.ReadCleanReq.mshrMisses::cpu.inst          858                       # number of ReadCleanReq MSHR misses (Count)
system.l2.ReadCleanReq.mshrMisses::total          858                       # number of ReadCleanReq MSHR misses (Count)
system.l2.ReadCleanReq.mshrMissLatency::cpu.inst     59057000                       # number of ReadCleanReq MSHR miss ticks (Tick)
system.l2.ReadCleanReq.mshrMissLatency::total     59057000                       # number of ReadCleanReq MSHR miss ticks (Tick)
system.l2.ReadCleanReq.mshrMissRate::cpu.inst     0.943894                       # mshr miss rate for ReadCleanReq accesses (Ratio)
system.l2.ReadCleanReq.mshrMissRate::total     0.943894                       # mshr miss rate for ReadCleanReq accesses (Ratio)
system.l2.ReadCleanReq.avgMshrMissLatency::cpu.inst 68831.002331                       # average ReadCleanReq mshr miss latency ((Tick/Count))
system.l2.ReadCleanReq.avgMshrMissLatency::total 68831.002331                       # average ReadCleanReq mshr miss latency ((Tick/Count))
system.l2.ReadExReq.hits::cpu.data             145477                       # number of ReadExReq hits (Count)
system.l2.ReadExReq.hits::total                145477                       # number of ReadExReq hits (Count)
system.l2.ReadExReq.misses::cpu.data           141553                       # number of ReadExReq misses (Count)
system.l2.ReadExReq.misses::total              141553                       # number of ReadExReq misses (Count)
system.l2.ReadExReq.missLatency::cpu.data  11890941500                       # number of ReadExReq miss ticks (Tick)
system.l2.ReadExReq.missLatency::total    11890941500                       # number of ReadExReq miss ticks (Tick)
system.l2.ReadExReq.accesses::cpu.data         287030                       # number of ReadExReq accesses(hits+misses) (Count)
system.l2.ReadExReq.accesses::total            287030                       # number of ReadExReq accesses(hits+misses) (Count)
system.l2.ReadExReq.missRate::cpu.data       0.493164                       # miss rate for ReadExReq accesses (Ratio)
system.l2.ReadExReq.missRate::total          0.493164                       # miss rate for ReadExReq accesses (Ratio)
system.l2.ReadExReq.avgMissLatency::cpu.data 84003.458069                       # average ReadExReq miss latency ((Tick/Count))
system.l2.ReadExReq.avgMissLatency::total 84003.458069                       # average ReadExReq miss latency ((Tick/Count))
system.l2.ReadExReq.mshrMisses::cpu.data       141553                       # number of ReadExReq MSHR misses (Count)
system.l2.ReadExReq.mshrMisses::total          141553                       # number of ReadExReq MSHR misses (Count)
system.l2.ReadExReq.mshrMissLatency::cpu.data  10475411500                       # number of ReadExReq MSHR miss ticks (Tick)
system.l2.ReadExReq.mshrMissLatency::total  10475411500                       # number of ReadExReq MSHR miss ticks (Tick)
system.l2.ReadExReq.mshrMissRate::cpu.data     0.493164                       # mshr miss rate for ReadExReq accesses (Ratio)
system.l2.ReadExReq.mshrMissRate::total      0.493164                       # mshr miss rate for ReadExReq accesses (Ratio)
system.l2.ReadExReq.avgMshrMissLatency::cpu.data 74003.458069                       # average ReadExReq mshr miss latency ((Tick/Count))
system.l2.ReadExReq.avgMshrMissLatency::total 74003.458069                       # average ReadExReq mshr miss latency ((Tick/Count))
system.l2.ReadSharedReq.hits::cpu.data         271910                       # number of ReadSharedReq hits (Count)
system.l2.ReadSharedReq.hits::total            271910                       # number of ReadSharedReq hits (Count)
system.l2.ReadSharedReq.misses::cpu.data        68096                       # number of ReadSharedReq misses (Count)
system.l2.ReadSharedReq.misses::total           68096                       # number of ReadSharedReq misses (Count)
system.l2.ReadSharedReq.missLatency::cpu.data   5371680000                       # number of ReadSharedReq miss ticks (Tick)
system.l2.ReadSharedReq.missLatency::total   5371680000                       # number of ReadSharedReq miss ticks (Tick)
system.l2.ReadSharedReq.accesses::cpu.data       340006                       # number of ReadSharedReq accesses(hits+misses) (Count)
system.l2.ReadSharedReq.accesses::total        340006                       # number of ReadSharedReq accesses(hits+misses) (Count)
system.l2.ReadSharedReq.missRate::cpu.data     0.200279                       # miss rate for ReadSharedReq accesses (Ratio)
system.l2.ReadSharedReq.missRate::total      0.200279                       # miss rate for ReadSharedReq accesses (Ratio)
system.l2.ReadSharedReq.avgMissLatency::cpu.data 78883.928571                       # average ReadSharedReq miss latency ((Tick/Count))
system.l2.ReadSharedReq.avgMissLatency::total 78883.928571                       # average ReadSharedReq miss latency ((Tick/Count))
system.l2.ReadSharedReq.mshrMisses::cpu.data        68096                       # number of ReadSharedReq MSHR misses (Count)
system.l2.ReadSharedReq.mshrMisses::total        68096                       # number of ReadSharedReq MSHR misses (Count)
system.l2.ReadSharedReq.mshrMissLatency::cpu.data   4690720000                       # number of ReadSharedReq MSHR miss ticks (Tick)
system.l2.ReadSharedReq.mshrMissLatency::total   4690720000                       # number of ReadSharedReq MSHR miss ticks (Tick)
system.l2.ReadSharedReq.mshrMissRate::cpu.data     0.200279                       # mshr miss rate for ReadSharedReq accesses (Ratio)
system.l2.ReadSharedReq.mshrMissRate::total     0.200279                       # mshr miss rate for ReadSharedReq accesses (Ratio)
system.l2.ReadSharedReq.avgMshrMissLatency::cpu.data 68883.928571                       # average ReadSharedReq mshr miss latency ((Tick/Count))
system.l2.ReadSharedReq.avgMshrMissLatency::total 68883.928571                       # average ReadSharedReq mshr miss latency ((Tick/Count))
system.l2.WritebackClean.hits::writebacks          454                       # number of WritebackClean hits (Count)
system.l2.WritebackClean.hits::total              454                       # number of WritebackClean hits (Count)
system.l2.WritebackClean.accesses::writebacks          454                       # number of WritebackClean accesses(hits+misses) (Count)
system.l2.WritebackClean.accesses::total          454                       # number of WritebackClean accesses(hits+misses) (Count)
system.l2.WritebackDirty.hits::writebacks       526147                       # number of WritebackDirty hits (Count)
system.l2.WritebackDirty.hits::total           526147                       # number of WritebackDirty hits (Count)
system.l2.WritebackDirty.accesses::writebacks       526147                       # number of WritebackDirty accesses(hits+misses) (Count)
system.l2.WritebackDirty.accesses::total       526147                       # number of WritebackDirty accesses(hits+misses) (Count)
system.l2.power_state.pwrStateResidencyTicks::UNDEFINED  85888644000                       # Cumulative time (in ticks) in various power states (Tick)
system.l2.tags.tagsInUse                 31730.233286                       # Average ticks per tags in use ((Tick/Count))
system.l2.tags.totalRefs                      1254416                       # Total number of references to valid blocks. (Count)
system.l2.tags.sampledRefs                     210772                       # Sample count of references to valid blocks. (Count)
system.l2.tags.avgRefs                       5.951531                       # Average number of references to valid blocks. ((Count/Count))
system.l2.tags.warmupTick                       77000                       # The tick when the warmup percentage was hit. (Tick)
system.l2.tags.occupancies::writebacks      70.969366                       # Average occupied blocks per tick, per requestor ((Count/Tick))
system.l2.tags.occupancies::cpu.inst       117.203895                       # Average occupied blocks per tick, per requestor ((Count/Tick))
system.l2.tags.occupancies::cpu.data     31542.060025                       # Average occupied blocks per tick, per requestor ((Count/Tick))
system.l2.tags.avgOccs::writebacks           0.002166                       # Average percentage of cache occupancy ((Ratio/Tick))
system.l2.tags.avgOccs::cpu.inst             0.003577                       # Average percentage of cache occupancy ((Ratio/Tick))
system.l2.tags.avgOccs::cpu.data             0.962587                       # Average percentage of cache occupancy ((Ratio/Tick))
system.l2.tags.avgOccs::total                0.968330                       # Average percentage of cache occupancy ((Ratio/Tick))
system.l2.tags.occupanciesTaskId::1024          32768                       # Occupied blocks per task id (Count)
system.l2.tags.ageTaskId_1024::1                   13                       # Occupied blocks per task id, per block age (Count)
system.l2.tags.ageTaskId_1024::2                  484                       # Occupied blocks per task id, per block age (Count)
system.l2.tags.ageTaskId_1024::3                 7472                       # Occupied blocks per task id, per block age (Count)
system.l2.tags.ageTaskId_1024::4                24799                       # Occupied blocks per task id, per block age (Count)
system.l2.tags.ratioOccsTaskId::1024                1                       # Ratio of occupied blocks and all blocks, per task id (Ratio)
system.l2.tags.tagAccesses                   10246156                       # Number of tag accesses (Count)
system.l2.tags.dataAccesses                  10246156                       # Number of data accesses (Count)
system.l2.tags.power_state.pwrStateResidencyTicks::UNDEFINED  85888644000                       # Cumulative time (in ticks) in various power states (Tick)
system.mem_ctrls.avgPriority_writebacks::samples    119010.00                       # Average QoS priority value for accepted requests (Count)
system.mem_ctrls.avgPriority_cpu.inst::samples       858.00                       # Average QoS priority value for accepted requests (Count)
system.mem_ctrls.avgPriority_cpu.data::samples    209609.00                       # Average QoS priority value for accepted requests (Count)
system.mem_ctrls.priorityMinLatency      0.000000018750                       # per QoS priority minimum request to response latency (Second)
system.mem_ctrls.priorityMaxLatency      0.002556570500                       # per QoS priority maximum request to response latency (Second)
system.mem_ctrls.numReadWriteTurnArounds         7124                       # Number of turnarounds from READ to WRITE (Count)
system.mem_ctrls.numWriteReadTurnArounds         7124                       # Number of turnarounds from WRITE to READ (Count)
[...]
system.mem_ctrls.dram.perBankWrBursts::12         7563                       # Per bank write bursts (Count)
system.mem_ctrls.dram.perBankWrBursts::13         7545                       # Per bank write bursts (Count)
system.mem_ctrls.dram.perBankWrBursts::14         7567                       # Per bank write bursts (Count)
system.mem_ctrls.dram.perBankWrBursts::15         7664                       # Per bank write bursts (Count)
system.mem_ctrls.dram.totQLat              2608672250                       # Total ticks spent queuing (Tick)
system.mem_ctrls.dram.totBusLat            1052335000                       # Total ticks spent in databus transfers (Tick)
system.mem_ctrls.dram.totMemAccLat         6554928500                       # Total ticks spent from burst creation until serviced by the DRAM (Tick)
system.mem_ctrls.dram.avgQLat                12394.69                       # Average queueing delay per DRAM burst ((Tick/Count))
system.mem_ctrls.dram.avgBusLat               5000.00                       # Average bus latency per DRAM burst ((Tick/Count))
system.mem_ctrls.dram.avgMemAccLat           31144.69                       # Average memory access latency per DRAM burst ((Tick/Count))
system.mem_ctrls.dram.readRowHits              141999                       # Number of row buffer hits during reads (Count)
system.mem_ctrls.dram.writeRowHits              71605                       # Number of row buffer hits during writes (Count)
system.mem_ctrls.dram.readRowHitRate            67.47                       # Row buffer hit rate for reads (Ratio)
system.mem_ctrls.dram.writeRowHitRate           60.18                       # Row buffer hit rate for writes (Ratio)
system.mem_ctrls.dram.bytesPerActivate::samples       115855                       # Bytes accessed per row activation (Byte)
system.mem_ctrls.dram.bytesPerActivate::mean   181.997980                       # Bytes accessed per row activation (Byte)
system.mem_ctrls.dram.bytesPerActivate::gmean   107.798504                       # Bytes accessed per row activation (Byte)
system.mem_ctrls.dram.bytesPerActivate::stdev   247.845713                       # Bytes accessed per row activation (Byte)
system.mem_ctrls.dram.bytesPerActivate::0-127        77960     67.29%     67.29% # Bytes accessed per row activation (Byte)
system.mem_ctrls.dram.bytesPerActivate::128-255        16493     14.24%     81.53% # Bytes accessed per row activation (Byte)
system.mem_ctrls.dram.bytesPerActivate::256-383         2603      2.25%     83.77% # Bytes accessed per row activation (Byte)
system.mem_ctrls.dram.bytesPerActivate::384-511         1711      1.48%     85.25% # Bytes accessed per row activation (Byte)
system.mem_ctrls.dram.bytesPerActivate::512-639         8970      7.74%     92.99% # Bytes accessed per row activation (Byte)
system.mem_ctrls.dram.bytesPerActivate::640-767          646      0.56%     93.55% # Bytes accessed per row activation (Byte)
system.mem_ctrls.dram.bytesPerActivate::768-895         1221      1.05%     94.60% # Bytes accessed per row activation (Byte)
system.mem_ctrls.dram.bytesPerActivate::896-1023         1233      1.06%     95.67% # Bytes accessed per row activation (Byte)
system.mem_ctrls.dram.bytesPerActivate::1024-1151         5018      4.33%    100.00% # Bytes accessed per row activation (Byte)
system.mem_ctrls.dram.bytesPerActivate::total       115855                       # Bytes accessed per row activation (Byte)
system.mem_ctrls.dram.bytesRead              13469888                       # Total bytes read (Byte)
system.mem_ctrls.dram.bytesWritten            7615488                       # Total bytes written (Byte)
system.mem_ctrls.dram.avgRdBW              156.829674                       # Average DRAM read bandwidth in MiBytes/s ((Byte/Second))
system.mem_ctrls.dram.avgWrBW               88.666995                       # Average DRAM write bandwidth in MiBytes/s ((Byte/Second))
system.mem_ctrls.dram.peakBW                 12800.00                       # Theoretical peak bandwidth in MiByte/s ((Byte/Second))
system.mem_ctrls.dram.busUtil                    1.92                       # Data bus utilization in percentage (Ratio)
system.mem_ctrls.dram.busUtilRead                1.23                       # Data bus utilization in percentage for reads (Ratio)
system.mem_ctrls.dram.busUtilWrite               0.69                       # Data bus utilization in percentage for writes (Ratio)
system.mem_ctrls.dram.pageHitRate               64.83                       # Row buffer hit rate, read and write combined (Ratio)
system.mem_ctrls.dram.power_state.pwrStateResidencyTicks::UNDEFINED  85888644000                       # Cumulative time (in ticks) in various power states (Tick)
system.mem_ctrls.dram.rank0.actEnergy       414362760                       # Energy for activate commands per rank (pJ) (Joule)
system.mem_ctrls.dram.rank0.preEnergy       220239030                       # Energy for precharge commands per rank (pJ) (Joule)
system.mem_ctrls.dram.rank0.readEnergy      747386640                       # Energy for read commands per rank (pJ) (Joule)
system.mem_ctrls.dram.rank0.writeEnergy     310610880                       # Energy for write commands per rank (pJ) (Joule)
system.mem_ctrls.dram.rank0.refreshEnergy 6779479200.000001                       # Energy for refresh commands per rank (pJ) (Joule)
system.mem_ctrls.dram.rank0.actBackEnergy  21617679780                       # Energy for active background per rank (pJ) (Joule)
system.mem_ctrls.dram.rank0.preBackEnergy  14776877760                       # Energy for precharge background per rank (pJ) (Joule)
system.mem_ctrls.dram.rank0.actPowerDownEnergy            0                       # Energy for active power-down per rank (pJ) (Joule)
system.mem_ctrls.dram.rank0.prePowerDownEnergy            0                       # Energy for precharge power-down per rank (pJ) (Joule)
system.mem_ctrls.dram.rank0.selfRefreshEnergy            0                       # Energy for self refresh per rank (pJ) (Joule)
system.mem_ctrls.dram.rank0.totalEnergy   44866636050                       # Total energy per rank (pJ) (Joule)
system.mem_ctrls.dram.rank0.averagePower   522.381469                       # Core power per rank (mW) (Watt)
system.mem_ctrls.dram.rank0.totalIdleTime            0                       # Total Idle time Per DRAM Rank (Tick)
system.mem_ctrls.dram.rank0.pwrStateTime::IDLE  38193003250                       # Time in different power states (Tick)
system.mem_ctrls.dram.rank0.pwrStateTime::REF   2867800000                       # Time in different power states (Tick)
system.mem_ctrls.dram.rank0.pwrStateTime::SREF            0                       # Time in different power states (Tick)
system.mem_ctrls.dram.rank0.pwrStateTime::PRE_PDN            0                       # Time in different power states (Tick)
system.mem_ctrls.dram.rank0.pwrStateTime::ACT  44827840750                       # Time in different power states (Tick)
system.mem_ctrls.dram.rank0.pwrStateTime::ACT_PDN            0                       # Time in different power states (Tick)
system.mem_ctrls.dram.rank1.actEnergy       412841940                       # Energy for activate commands per rank (pJ) (Joule)
system.mem_ctrls.dram.rank1.preEnergy       219430695                       # Energy for precharge commands per rank (pJ) (Joule)
system.mem_ctrls.dram.rank1.readEnergy      755347740                       # Energy for read commands per rank (pJ) (Joule)
system.mem_ctrls.dram.rank1.writeEnergy     310527360                       # Energy for write commands per rank (pJ) (Joule)
system.mem_ctrls.dram.rank1.refreshEnergy 6779479200.000001                       # Energy for refresh commands per rank (pJ) (Joule)
system.mem_ctrls.dram.rank1.actBackEnergy  21651634680                       # Energy for active background per rank (pJ) (Joule)
system.mem_ctrls.dram.rank1.preBackEnergy  14748284160                       # Energy for precharge background per rank (pJ) (Joule)
system.mem_ctrls.dram.rank1.actPowerDownEnergy            0                       # Energy for active power-down per rank (pJ) (Joule)
system.mem_ctrls.dram.rank1.prePowerDownEnergy            0                       # Energy for precharge power-down per rank (pJ) (Joule)
system.mem_ctrls.dram.rank1.selfRefreshEnergy            0                       # Energy for self refresh per rank (pJ) (Joule)
system.mem_ctrls.dram.rank1.totalEnergy   44877545775                       # Total energy per rank (pJ) (Joule)
system.mem_ctrls.dram.rank1.averagePower   522.508491                       # Core power per rank (mW) (Watt)
system.mem_ctrls.dram.rank1.totalIdleTime            0                       # Total Idle time Per DRAM Rank (Tick)
system.mem_ctrls.dram.rank1.pwrStateTime::IDLE  38115562250                       # Time in different power states (Tick)
system.mem_ctrls.dram.rank1.pwrStateTime::REF   2867800000                       # Time in different power states (Tick)
system.mem_ctrls.dram.rank1.pwrStateTime::SREF            0                       # Time in different power states (Tick)
system.mem_ctrls.dram.rank1.pwrStateTime::PRE_PDN            0                       # Time in different power states (Tick)
system.mem_ctrls.dram.rank1.pwrStateTime::ACT  44905281750                       # Time in different power states (Tick)
system.mem_ctrls.dram.rank1.pwrStateTime::ACT_PDN            0                       # Time in different power states (Tick)
system.mem_ctrls.power_state.pwrStateResidencyTicks::UNDEFINED  85888644000                       # Cumulative time (in ticks) in various power states (Tick)
system.membus.transDist::ReadResp               68954                       # Transaction distribution (Count)
system.membus.transDist::WritebackDirty        119010                       # Transaction distribution (Count)
system.membus.transDist::CleanEvict             58332                       # Transaction distribution (Count)
system.membus.transDist::ReadExReq             141553                       # Transaction distribution (Count)
system.membus.transDist::ReadExResp            141553                       # Transaction distribution (Count)
system.membus.transDist::ReadSharedReq          68954                       # Transaction distribution (Count)
system.membus.transDist::InvalidateReq              7                       # Transaction distribution (Count)
system.membus.pktCount_system.l2.mem_side_port::system.mem_ctrls.port       598363                       # Packet count per connected requestor and responder (Count)
system.membus.pktCount::total                  598363                       # Packet count per connected requestor and responder (Count)
system.membus.pktSize_system.l2.mem_side_port::system.mem_ctrls.port     21089088                       # Cumulative packet size per connected requestor and responder (Byte)
system.membus.pktSize::total                 21089088                       # Cumulative packet size per connected requestor and responder (Byte)
system.membus.snoops                                0                       # Total snoops (Count)
system.membus.snoopTraffic                          0                       # Total snoop traffic (Byte)
system.membus.snoopFanout::samples             210514                       # Request fanout histogram (Count)
system.membus.snoopFanout::mean                     0                       # Request fanout histogram (Count)
system.membus.snoopFanout::stdev                    0                       # Request fanout histogram (Count)
system.membus.snoopFanout::underflows               0      0.00%      0.00% # Request fanout histogram (Count)
system.membus.snoopFanout::0                   210514    100.00%    100.00% # Request fanout histogram (Count)
system.membus.snoopFanout::1                        0      0.00%    100.00% # Request fanout histogram (Count)
system.membus.snoopFanout::overflows                0      0.00%    100.00% # Request fanout histogram (Count)
system.membus.snoopFanout::min_value                0                       # Request fanout histogram (Count)
system.membus.snoopFanout::max_value                0                       # Request fanout histogram (Count)
system.membus.snoopFanout::total               210514                       # Request fanout histogram (Count)
system.membus.power_state.pwrStateResidencyTicks::UNDEFINED  85888644000                       # Cumulative time (in ticks) in various power states (Tick)
system.membus.reqLayer0.occupancy           930879000                       # Layer occupancy (ticks) (Tick)
system.membus.reqLayer0.utilization               0.0                       # Layer utilization (Ratio)
system.membus.respLayer1.occupancy         1126373250                       # Layer occupancy (ticks) (Tick)
system.membus.respLayer1.utilization              0.0                       # Layer utilization (Ratio)
system.membus.snoop_filter.totRequests         387856                       # Total number of requests made to the snoop filter. (Count)
system.membus.snoop_filter.hitSingleRequests       177342                       # Number of requests hitting in the snoop filter with a single holder of the requested data. (Count)
system.membus.snoop_filter.hitMultiRequests            0                       # Number of requests hitting in the snoop filter with multiple (>1) holders of the requested data. (Count)
system.membus.snoop_filter.totSnoops                0                       # Total number of snoops made to the snoop filter. (Count)
system.membus.snoop_filter.hitSingleSnoops            0                       # Number of snoops hitting in the snoop filter with a single holder of the requested data. (Count)
system.membus.snoop_filter.hitMultiSnoops            0                       # Number of snoops hitting in the snoop filter with multiple (>1) holders of the requested data. (Count)
system.tol2bus.transDist::ReadResp             340915                       # Transaction distribution (Count)
system.tol2bus.transDist::WritebackDirty       645157                       # Transaction distribution (Count)
system.tol2bus.transDist::WritebackClean          454                       # Transaction distribution (Count)
system.tol2bus.transDist::CleanEvict           158866                       # Transaction distribution (Count)
system.tol2bus.transDist::ReadExReq            287030                       # Transaction distribution (Count)
system.tol2bus.transDist::ReadExResp           287030                       # Transaction distribution (Count)
system.tol2bus.transDist::ReadCleanReq            909                       # Transaction distribution (Count)
system.tol2bus.transDist::ReadSharedReq        340006                       # Transaction distribution (Count)
system.tol2bus.transDist::InvalidateReq             7                       # Transaction distribution (Count)
system.tol2bus.transDist::InvalidateResp            7                       # Transaction distribution (Count)
system.tol2bus.pktCount_system.cpu.icache.mem_side_port::system.l2.cpu_side_port         2272                       # Packet count per connected requestor and responder (Count)
system.tol2bus.pktCount_system.cpu.dcache.mem_side_port::system.l2.cpu_side_port      1880105                       # Packet count per connected requestor and responder (Count)
system.tol2bus.pktCount::total                1882377                       # Packet count per connected requestor and responder (Count)
system.tol2bus.pktSize_system.cpu.icache.mem_side_port::system.l2.cpu_side_port        87232                       # Cumulative packet size per connected requestor and responder (Byte)
system.tol2bus.pktSize_system.cpu.dcache.mem_side_port::system.l2.cpu_side_port     73803712                       # Cumulative packet size per connected requestor and responder (Byte)
system.tol2bus.pktSize::total                73890944                       # Cumulative packet size per connected requestor and responder (Byte)
system.tol2bus.snoops                          178004                       # Total snoops (Count)
system.tol2bus.snoopTraffic                   7616640                       # Total snoop traffic (Byte)
system.tol2bus.snoopFanout::samples            805956                       # Request fanout histogram (Count)
system.tol2bus.snoopFanout::mean             0.000824                       # Request fanout histogram (Count)
system.tol2bus.snoopFanout::stdev            0.028691                       # Request fanout histogram (Count)
system.tol2bus.snoopFanout::underflows              0      0.00%      0.00% # Request fanout histogram (Count)
system.tol2bus.snoopFanout::0                  805292     99.92%     99.92% # Request fanout histogram (Count)
system.tol2bus.snoopFanout::1                     664      0.08%    100.00% # Request fanout histogram (Count)
system.tol2bus.snoopFanout::2                       0      0.00%    100.00% # Request fanout histogram (Count)
system.tol2bus.snoopFanout::overflows               0      0.00%    100.00% # Request fanout histogram (Count)
system.tol2bus.snoopFanout::min_value               0                       # Request fanout histogram (Count)
system.tol2bus.snoopFanout::max_value               1                       # Request fanout histogram (Count)
system.tol2bus.snoopFanout::total              805956                       # Request fanout histogram (Count)
system.tol2bus.power_state.pwrStateResidencyTicks::UNDEFINED  85888644000                       # Cumulative time (in ticks) in various power states (Tick)
system.tol2bus.reqLayer0.occupancy         1153813500                       # Layer occupancy (ticks) (Tick)
system.tol2bus.reqLayer0.utilization              0.0                       # Layer utilization (Ratio)
system.tol2bus.respLayer0.occupancy           1363500                       # Layer occupancy (ticks) (Tick)
system.tol2bus.respLayer0.utilization             0.0                       # Layer utilization (Ratio)
system.tol2bus.respLayer1.occupancy         940557500                       # Layer occupancy (ticks) (Tick)
system.tol2bus.respLayer1.utilization             0.0                       # Layer utilization (Ratio)
system.tol2bus.snoop_filter.totRequests       1254425                       # Total number of requests made to the snoop filter. (Count)
system.tol2bus.snoop_filter.hitSingleRequests       626473                       # Number of requests hitting in the snoop filter with a single holder of the requested data. (Count)
system.tol2bus.snoop_filter.hitMultiRequests            2                       # Number of requests hitting in the snoop filter with multiple (>1) holders of the requested data. (Count)
system.tol2bus.snoop_filter.totSnoops             662                       # Total number of snoops made to the snoop filter. (Count)
system.tol2bus.snoop_filter.hitSingleSnoops          662                       # Number of snoops hitting in the snoop filter with a single holder of the requested data. (Count)
system.tol2bus.snoop_filter.hitMultiSnoops            0                       # Number of snoops hitting in the snoop filter with multiple (>1) holders of the requested data. (Count)
system.voltage_domain.voltage                       1                       # Voltage in Volts (Volt)
system.workload.inst.arm                            0                       # number of arm instructions executed (Count)
system.workload.inst.quiesce                        0                       # number of quiesce instructions executed (Count)
system.cpu.idleCycles                        40134933                       # Total number of cycles that the object has spent stopped (Unspecified)
system.cpu.tickCycles                       131642355                       # Number of cycles that the object actually ticked (Unspecified)

---------- End Simulation Statistics   ----------
