
---------- Begin Simulation Statistics ----------
simSeconds                                   0.083351                       # Number of seconds simulated (Second)
simTicks                                  83350810500                       # Number of ticks simulated (Tick)
finalTick                                 83350810500                       # Number of ticks from beginning of simulation (restored from checkpoints and never reset) (Tick)
simFreq                                  1000000000000                       # The number of ticks per simulated second ((Tick/Second))
hostSeconds                                    238.54                       # Real time elapsed on the host (Second)
hostTickRate                                349425393                       # The number of ticks simulated per host second (ticks/s) ((Tick/Second))
hostMemory                                     684892                       # Number of bytes of host memory used (Byte)
simInsts                                    100000000                       # Number of instructions simulated (Count)
simOps                                      100677219                       # Number of ops (including micro ops) simulated (Count)
hostInstRate                                   419222                       # Simulator instruction rate (inst/s) ((Count/Second))
hostOpRate                                     422061                       # Simulator op (including micro ops) rate (op/s) ((Count/Second))
system.clk_domain.clock                          1000                       # Clock period in ticks (Tick)
system.cpu.numCycles                        166701621                       # Number of cpu cycles simulated (Cycle)
system.cpu.numWorkItemsStarted                      0                       # Number of work items this cpu started (Count)
system.cpu.numWorkItemsCompleted                    0                       # Number of work items this cpu completed (Count)
system.cpu.numInsts                         100000000                       # Number of instructions committed (Count)
system.cpu.numOps                           100677219                       # Number of ops (including micro ops) committed (Count)
system.cpu.numDiscardedOps                     489658                       # Number of ops (including micro ops) which were discarded before commit (Count)
system.cpu.numFetchSuspends                         0                       # Number of times Execute suspended instruction fetching (Count)
system.cpu.cpi                               1.667016                       # CPI: cycles per instruction ((Cycle/Count))
system.cpu.ipc                               0.599874                       # IPC: instructions per cycle ((Count/Cycle))
system.cpu.committedInstType_0::No_OpClass           47      0.00%      0.00% # Class of committed instruction (Count)
system.cpu.committedInstType_0::IntAlu       40121112     39.85%     39.85% # Class of committed instruction (Count)
system.cpu.committedInstType_0::IntMult         20664      0.02%     39.87% # Class of committed instruction (Count)
system.cpu.committedInstType_0::IntDiv              4      0.00%     39.87% # Class of committed instruction (Count)
system.cpu.committedInstType_0::FloatAdd            0      0.00%     39.87% # Class of committed instruction (Count)
system.cpu.committedInstType_0::FloatCmp            0      0.00%     39.87% # Class of committed instruction (Count)
system.cpu.committedInstType_0::FloatCvt            0      0.00%     39.87% # Class of committed instruction (Count)
system.cpu.committedInstType_0::FloatMult            0      0.00%     39.87% # Class of committed instruction (Count)
system.cpu.committedInstType_0::FloatMultAcc            0      0.00%     39.87% # Class of committed instruction (Count)
system.cpu.committedInstType_0::FloatDiv            0      0.00%     39.87% # Class of committed instruction (Count)
system.cpu.committedInstType_0::FloatMisc           16      0.00%     39.87% # Class of committed instruction (Count)
system.cpu.committedInstType_0::FloatSqrt            0      0.00%     39.87% # Class of committed instruction (Count)
system.cpu.committedInstType_0::SimdAdd            11      0.00%     39.87% # Class of committed instruction (Count)
system.cpu.committedInstType_0::SimdAddAcc            0      0.00%     39.87% # Class of committed instruction (Count)
system.cpu.committedInstType_0::SimdAlu            14      0.00%     39.87% # Class of committed instruction (Count)
system.cpu.committedInstType_0::SimdCmp            29      0.00%     39.87% # Class of committed instruction (Count)
system.cpu.committedInstType_0::SimdCvt             0      0.00%     39.87% # Class of committed instruction (Count)
system.cpu.committedInstType_0::SimdMisc           19      0.00%     39.87% # Class of committed instruction (Count)
system.cpu.committedInstType_0::SimdMult            0      0.00%     39.87% # Class of committed instruction (Count)
system.cpu.committedInstType_0::SimdMultAcc            0      0.00%     39.87% # Class of committed instruction (Count)
system.cpu.committedInstType_0::SimdShift            0      0.00%     39.87% # Class of committed instruction (Count)
system.cpu.committedInstType_0::SimdShiftAcc            0      0.00%     39.87% # Class of committed instruction (Count)
system.cpu.committedInstType_0::SimdDiv             0      0.00%     39.87% # Class of committed instruction (Count)
system.cpu.committedInstType_0::SimdSqrt            0      0.00%     39.87% # Class of committed instruction (Count)
system.cpu.committedInstType_0::SimdFloatAdd            0      0.00%     39.87% # Class of committed instruction (Count)
system.cpu.committedInstType_0::SimdFloatAlu            0      0.00%     39.87% # Class of committed instruction (Count)
system.cpu.committedInstType_0::SimdFloatCmp            0      0.00%     39.87% # Class of committed instruction (Count)
system.cpu.committedInstType_0::SimdFloatCvt            0      0.00%     39.87% # Class of committed instruction (Count)
system.cpu.committedInstType_0::SimdFloatDiv            0      0.00%     39.87% # Class of committed instruction (Count)
system.cpu.committedInstType_0::SimdFloatMisc            0      0.00%     39.87% # Class of committed instruction (Count)
system.cpu.committedInstType_0::SimdFloatMult            0      0.00%     39.87% # Class of committed instruction (Count)
system.cpu.committedInstType_0::SimdFloatMultAcc            0      0.00%     39.87% # Class of committed instruction (Count)
system.cpu.committedInstType_0::SimdFloatSqrt            0      0.00%     39.87% # Class of committed instruction (Count)
system.cpu.committedInstType_0::SimdReduceAdd            0      0.00%     39.87% # Class of committed instruction (Count)
system.cpu.committedInstType_0::SimdReduceAlu            0      0.00%     39.87% # Class of committed instruction (Count)
system.cpu.committedInstType_0::SimdReduceCmp            0      0.00%     39.87% # Class of committed instruction (Count)
system.cpu.committedInstType_0::SimdFloatReduceAdd            0      0.00%     39.87% # Class of committed instruction (Count)
system.cpu.committedInstType_0::SimdFloatReduceCmp            0      0.00%     39.87% # Class of committed instruction (Count)
system.cpu.committedInstType_0::SimdAes             0      0.00%     39.87% # Class of committed instruction (Count)
system.cpu.committedInstType_0::SimdAesMix            0      0.00%     39.87% # Class of committed instruction (Count)
system.cpu.committedInstType_0::SimdSha1Hash            0      0.00%     39.87% # Class of committed instruction (Count)
system.cpu.committedInstType_0::SimdSha1Hash2            0      0.00%     39.87% # Class of committed instruction (Count)
system.cpu.committedInstType_0::SimdSha256Hash            0      0.00%     39.87% # Class of committed instruction (Count)
system.cpu.committedInstType_0::SimdSha256Hash2            0      0.00%     39.87% # Class of committed instruction (Count)
system.cpu.committedInstType_0::SimdShaSigma2            0      0.00%     39.87% # Class of committed instruction (Count)
system.cpu.committedInstType_0::SimdShaSigma3            0      0.00%     39.87% # Class of committed instruction (Count)
system.cpu.committedInstType_0::SimdPredAlu            0      0.00%     39.87% # Class of committed instruction (Count)
system.cpu.committedInstType_0::MemRead      47675348     47.35%     87.23% # Class of committed instruction (Count)
system.cpu.committedInstType_0::MemWrite     12859955     12.77%    100.00% # Class of committed instruction (Count)
system.cpu.committedInstType_0::FloatMemRead            0      0.00%    100.00% # Class of committed instruction (Count)
system.cpu.committedInstType_0::FloatMemWrite            0      0.00%    100.00% # Class of committed instruction (Count)
system.cpu.committedInstType_0::IprAccess            0      0.00%    100.00% # Class of committed instruction (Count)
system.cpu.committedInstType_0::InstPrefetch            0      0.00%    100.00% # Class of committed instruction (Count)
system.cpu.committedInstType_0::total       100677219                       # Class of committed instruction (Count)
system.cpu.branchPred.lookups                 5725188                       # Number of BP lookups (Count)
system.cpu.branchPred.condPredicted           4586766                       # Number of conditional branches predicted (Count)
system.cpu.branchPred.condIncorrect            185576                       # Number of conditional branches incorrect (Count)
system.cpu.branchPred.BTBLookups              2947968                       # Number of BTB lookups (Count)
system.cpu.branchPred.BTBHits                 2944651                       # Number of BTB hits (Count)
system.cpu.branchPred.BTBHitRatio            0.998875                       # BTB Hit Ratio (Ratio)
system.cpu.branchPred.RASUsed                  138535                       # Number of times the RAS was used to get a target. (Count)
system.cpu.branchPred.RASIncorrect                101                       # Number of incorrect RAS predictions. (Count)
system.cpu.branchPred.indirectLookups             315                       # Number of indirect predictor lookups. (Count)
system.cpu.branchPred.indirectHits                166                       # Number of indirect target hits. (Count)
system.cpu.branchPred.indirectMisses              149                       # Number of indirect misses. (Count)
system.cpu.branchPred.indirectMispredicted          125                       # Number of mispredicted indirect branches. (Count)
system.cpu.dcache.demandHits::cpu.data       57594480                       # number of demand (read+write) hits (Count)
system.cpu.dcache.demandHits::total          57594480                       # number of demand (read+write) hits (Count)
system.cpu.dcache.overallHits::cpu.data      57594480                       # number of overall hits (Count)
system.cpu.dcache.overallHits::total         57594480                       # number of overall hits (Count)
system.cpu.dcache.demandMisses::cpu.data       921115                       # number of demand (read+write) misses (Count)
system.cpu.dcache.demandMisses::total          921115                       # number of demand (read+write) misses (Count)
system.cpu.dcache.overallMisses::cpu.data       921115                       # number of overall misses (Count)
system.cpu.dcache.overallMisses::total         921115                       # number of overall misses (Count)
system.cpu.dcache.demandMissLatency::cpu.data  22998628500                       # number of demand (read+write) miss ticks (Tick)
system.cpu.dcache.demandMissLatency::total  22998628500                       # number of demand (read+write) miss ticks (Tick)
system.cpu.dcache.overallMissLatency::cpu.data  22998628500                       # number of overall miss ticks (Tick)
system.cpu.dcache.overallMissLatency::total  22998628500                       # number of overall miss ticks (Tick)
system.cpu.dcache.demandAccesses::cpu.data     58515595                       # number of demand (read+write) accesses (Count)
system.cpu.dcache.demandAccesses::total      58515595                       # number of demand (read+write) accesses (Count)
system.cpu.dcache.overallAccesses::cpu.data     58515595                       # number of overall (read+write) accesses (Count)
system.cpu.dcache.overallAccesses::total     58515595                       # number of overall (read+write) accesses (Count)
system.cpu.dcache.demandMissRate::cpu.data     0.015741                       # miss rate for demand accesses (Ratio)
system.cpu.dcache.demandMissRate::total      0.015741                       # miss rate for demand accesses (Ratio)
system.cpu.dcache.overallMissRate::cpu.data     0.015741                       # miss rate for overall accesses (Ratio)
system.cpu.dcache.overallMissRate::total     0.015741                       # miss rate for overall accesses (Ratio)
system.cpu.dcache.demandAvgMissLatency::cpu.data 24968.248807                       # average overall miss latency in ticks ((Tick/Count))
system.cpu.dcache.demandAvgMissLatency::total 24968.248807                       # average overall miss latency in ticks ((Tick/Count))
system.cpu.dcache.overallAvgMissLatency::cpu.data 24968.248807                       # average overall miss latency ((Tick/Count))
system.cpu.dcache.overallAvgMissLatency::total 24968.248807                       # average overall miss latency ((Tick/Count))
system.cpu.dcache.blockedCycles::no_mshrs            0                       # number of cycles access was blocked (Cycle)
system.cpu.dcache.blockedCycles::no_targets            0                       # number of cycles access was blocked (Cycle)
system.cpu.dcache.blockedCauses::no_mshrs            0                       # number of times access was blocked (Count)
system.cpu.dcache.blockedCauses::no_targets            0                       # number of times access was blocked (Count)
system.cpu.dcache.avgBlocked::no_mshrs            nan                       # average number of cycles each access was blocked ((Cycle/Count))
system.cpu.dcache.avgBlocked::no_targets          nan                       # average number of cycles each access was blocked ((Cycle/Count))
system.cpu.dcache.writebacks::writebacks       840840                       # number of writebacks (Count)
system.cpu.dcache.writebacks::total            840840                       # number of writebacks (Count)
system.cpu.dcache.demandMshrHits::cpu.data         9496                       # number of demand (read+write) MSHR hits (Count)
system.cpu.dcache.demandMshrHits::total          9496                       # number of demand (read+write) MSHR hits (Count)
system.cpu.dcache.overallMshrHits::cpu.data         9496                       # number of overall MSHR hits (Count)
system.cpu.dcache.overallMshrHits::total         9496                       # number of overall MSHR hits (Count)
system.cpu.dcache.demandMshrMisses::cpu.data       911619                       # number of demand (read+write) MSHR misses (Count)
system.cpu.dcache.demandMshrMisses::total       911619                       # number of demand (read+write) MSHR misses (Count)
system.cpu.dcache.overallMshrMisses::cpu.data       911619                       # number of overall MSHR misses (Count)
system.cpu.dcache.overallMshrMisses::total       911619                       # number of overall MSHR misses (Count)
system.cpu.dcache.demandMshrMissLatency::cpu.data  21009278500                       # number of demand (read+write) MSHR miss ticks (Tick)
system.cpu.dcache.demandMshrMissLatency::total  21009278500                       # number of demand (read+write) MSHR miss ticks (Tick)
system.cpu.dcache.overallMshrMissLatency::cpu.data  21009278500                       # number of overall MSHR miss ticks (Tick)
system.cpu.dcache.overallMshrMissLatency::total  21009278500                       # number of overall MSHR miss ticks (Tick)
system.cpu.dcache.demandMshrMissRate::cpu.data     0.015579                       # mshr miss ratio for demand accesses (Ratio)
system.cpu.dcache.demandMshrMissRate::total     0.015579                       # mshr miss ratio for demand accesses (Ratio)
system.cpu.dcache.overallMshrMissRate::cpu.data     0.015579                       # mshr miss ratio for overall accesses (Ratio)
system.cpu.dcache.overallMshrMissRate::total     0.015579                       # mshr miss ratio for overall accesses (Ratio)
system.cpu.dcache.demandAvgMshrMissLatency::cpu.data 23046.117402                       # average overall mshr miss latency ((Tick/Count))
system.cpu.dcache.demandAvgMshrMissLatency::total 23046.117402                       # average overall mshr miss latency ((Tick/Count))
system.cpu.dcache.overallAvgMshrMissLatency::cpu.data 23046.117402                       # average overall mshr miss latency ((Tick/Count))
system.cpu.dcache.overallAvgMshrMissLatency::total 23046.117402                       # average overall mshr miss latency ((Tick/Count))
system.cpu.dcache.replacements                 911491                       # number of replacements (Count)
system.cpu.dcache.LoadLockedReq.hits::cpu.data            4                       # number of LoadLockedReq hits (Count)
system.cpu.dcache.LoadLockedReq.hits::total            4                       # number of LoadLockedReq hits (Count)
system.cpu.dcache.LoadLockedReq.accesses::cpu.data            4                       # number of LoadLockedReq accesses(hits+misses) (Count)
system.cpu.dcache.LoadLockedReq.accesses::total            4                       # number of LoadLockedReq accesses(hits+misses) (Count)
system.cpu.dcache.ReadReq.hits::cpu.data     45155538                       # number of ReadReq hits (Count)
system.cpu.dcache.ReadReq.hits::total        45155538                       # number of ReadReq hits (Count)
system.cpu.dcache.ReadReq.misses::cpu.data       508750                       # number of ReadReq misses (Count)
system.cpu.dcache.ReadReq.misses::total        508750                       # number of ReadReq misses (Count)
system.cpu.dcache.ReadReq.missLatency::cpu.data   8978059000                       # number of ReadReq miss ticks (Tick)
system.cpu.dcache.ReadReq.missLatency::total   8978059000                       # number of ReadReq miss ticks (Tick)
system.cpu.dcache.ReadReq.accesses::cpu.data     45664288                       # number of ReadReq accesses(hits+misses) (Count)
system.cpu.dcache.ReadReq.accesses::total     45664288                       # number of ReadReq accesses(hits+misses) (Count)
system.cpu.dcache.ReadReq.missRate::cpu.data     0.011141                       # miss rate for ReadReq accesses (Ratio)
system.cpu.dcache.ReadReq.missRate::total     0.011141                       # miss rate for ReadReq accesses (Ratio)
system.cpu.dcache.ReadReq.avgMissLatency::cpu.data 17647.290418                       # average ReadReq miss latency ((Tick/Count))
system.cpu.dcache.ReadReq.avgMissLatency::total 17647.290418                       # average ReadReq miss latency ((Tick/Count))
system.cpu.dcache.ReadReq.mshrHits::cpu.data           41                       # number of ReadReq MSHR hits (Count)
system.cpu.dcache.ReadReq.mshrHits::total           41                       # number of ReadReq MSHR hits (Count)
system.cpu.dcache.ReadReq.mshrMisses::cpu.data       508709                       # number of ReadReq MSHR misses (Count)
system.cpu.dcache.ReadReq.mshrMisses::total       508709                       # number of ReadReq MSHR misses (Count)
system.cpu.dcache.ReadReq.mshrMissLatency::cpu.data   8467848500                       # number of ReadReq MSHR miss ticks (Tick)
system.cpu.dcache.ReadReq.mshrMissLatency::total   8467848500                       # number of ReadReq MSHR miss ticks (Tick)
system.cpu.dcache.ReadReq.mshrMissRate::cpu.data     0.011140                       # mshr miss rate for ReadReq accesses (Ratio)
system.cpu.dcache.ReadReq.mshrMissRate::total     0.011140                       # mshr miss rate for ReadReq accesses (Ratio)
system.cpu.dcache.ReadReq.avgMshrMissLatency::cpu.data 16645.761133                       # average ReadReq mshr miss latency ((Tick/Count))
system.cpu.dcache.ReadReq.avgMshrMissLatency::total 16645.761133                       # average ReadReq mshr miss latency ((Tick/Count))
system.cpu.dcache.StoreCondReq.hits::cpu.data            4                       # number of StoreCondReq hits (Count)
system.cpu.dcache.StoreCondReq.hits::total            4                       # number of StoreCondReq hits (Count)
system.cpu.dcache.StoreCondReq.accesses::cpu.data            4                       # number of StoreCondReq accesses(hits+misses) (Count)
system.cpu.dcache.StoreCondReq.accesses::total            4                       # number of StoreCondReq accesses(hits+misses) (Count)
system.cpu.dcache.SwapReq.hits::cpu.data           34                       # number of SwapReq hits (Count)
system.cpu.dcache.SwapReq.hits::total              34                       # number of SwapReq hits (Count)
system.cpu.dcache.SwapReq.accesses::cpu.data           34                       # number of SwapReq accesses(hits+misses) (Count)
system.cpu.dcache.SwapReq.accesses::total           34                       # number of SwapReq accesses(hits+misses) (Count)
system.cpu.dcache.WriteReq.hits::cpu.data     12438942                       # number of WriteReq hits (Count)
system.cpu.dcache.WriteReq.hits::total       12438942                       # number of WriteReq hits (Count)
system.cpu.dcache.WriteReq.misses::cpu.data       412365                       # number of WriteReq misses (Count)
system.cpu.dcache.WriteReq.misses::total       412365                       # number of WriteReq misses (Count)
system.cpu.dcache.WriteReq.missLatency::cpu.data  14020569500                       # number of WriteReq miss ticks (Tick)
system.cpu.dcache.WriteReq.missLatency::total  14020569500                       # number of WriteReq miss ticks (Tick)
system.cpu.dcache.WriteReq.accesses::cpu.data     12851307                       # number of WriteReq accesses(hits+misses) (Count)
system.cpu.dcache.WriteReq.accesses::total     12851307                       # number of WriteReq accesses(hits+misses) (Count)
system.cpu.dcache.WriteReq.missRate::cpu.data     0.032087                       # miss rate for WriteReq accesses (Ratio)
system.cpu.dcache.WriteReq.missRate::total     0.032087                       # miss rate for WriteReq accesses (Ratio)
system.cpu.dcache.WriteReq.avgMissLatency::cpu.data 34000.386793                       # average WriteReq miss latency ((Tick/Count))
system.cpu.dcache.WriteReq.avgMissLatency::total 34000.386793                       # average WriteReq miss latency ((Tick/Count))
system.cpu.dcache.WriteReq.mshrHits::cpu.data         9455                       # number of WriteReq MSHR hits (Count)
system.cpu.dcache.WriteReq.mshrHits::total         9455                       # number of WriteReq MSHR hits (Count)
system.cpu.dcache.WriteReq.mshrMisses::cpu.data       402910                       # number of WriteReq MSHR misses (Count)
system.cpu.dcache.WriteReq.mshrMisses::total       402910                       # number of WriteReq MSHR misses (Count)
system.cpu.dcache.WriteReq.mshrMissLatency::cpu.data  12541430000                       # number of WriteReq MSHR miss ticks (Tick)
system.cpu.dcache.WriteReq.mshrMissLatency::total  12541430000                       # number of WriteReq MSHR miss ticks (Tick)
system.cpu.dcache.WriteReq.mshrMissRate::cpu.data     0.031352                       # mshr miss rate for WriteReq accesses (Ratio)
system.cpu.dcache.WriteReq.mshrMissRate::total     0.031352                       # mshr miss rate for WriteReq accesses (Ratio)
system.cpu.dcache.WriteReq.avgMshrMissLatency::cpu.data 31127.125164                       # average WriteReq mshr miss latency ((Tick/Count))
system.cpu.dcache.WriteReq.avgMshrMissLatency::total 31127.125164                       # average WriteReq mshr miss latency ((Tick/Count))
system.cpu.dcache.power_state.pwrStateResidencyTicks::UNDEFINED  83350810500                       # Cumulative time (in ticks) in various power states (Tick)
system.cpu.dcache.tags.tagsInUse           126.510734                       # Average ticks per tags in use ((Tick/Count))
system.cpu.dcache.tags.totalRefs             58506141                       # Total number of references to valid blocks. (Count)
system.cpu.dcache.tags.sampledRefs             911619                       # Sample count of references to valid blocks. (Count)
system.cpu.dcache.tags.avgRefs              64.178282                       # Average number of references to valid blocks. ((Count/Count))
system.cpu.dcache.tags.warmupTick              271500                       # The tick when the warmup percentage was hit. (Tick)
system.cpu.dcache.tags.occupancies::cpu.data   126.510734                       # Average occupied blocks per tick, per requestor ((Count/Tick))
system.cpu.dcache.tags.avgOccs::cpu.data     0.988365                       # Average percentage of cache occupancy ((Ratio/Tick))
system.cpu.dcache.tags.avgOccs::total        0.988365                       # Average percentage of cache occupancy ((Ratio/Tick))
system.cpu.dcache.tags.occupanciesTaskId::1024          128                       # Occupied blocks per task id (Count)
system.cpu.dcache.tags.ageTaskId_1024::0            8                       # Occupied blocks per task id, per block age (Count)
system.cpu.dcache.tags.ageTaskId_1024::1          108                       # Occupied blocks per task id, per block age (Count)
system.cpu.dcache.tags.ageTaskId_1024::2           12                       # Occupied blocks per task id, per block age (Count)
system.cpu.dcache.tags.ratioOccsTaskId::1024            1                       # Ratio of occupied blocks and all blocks, per task id (Ratio)
system.cpu.dcache.tags.tagAccesses          117942893                       # Number of tag accesses (Count)
system.cpu.dcache.tags.dataAccesses         117942893                       # Number of data accesses (Count)
system.cpu.dcache.tags.power_state.pwrStateResidencyTicks::UNDEFINED  83350810500                       # Cumulative time (in ticks) in various power states (Tick)
system.cpu.fetch2.intInstructions            35782744                       # Number of integer instructions successfully decoded (Count)
system.cpu.fetch2.fpInstructions                    0                       # Number of floating point instructions successfully decoded (Count)
system.cpu.fetch2.vecInstructions                 108                       # Number of SIMD instructions successfully decoded (Count)
system.cpu.fetch2.loadInstructions           49230700                       # Number of memory load instructions successfully decoded (Count)
system.cpu.fetch2.storeInstructions          12868773                       # Number of memory store instructions successfully decoded (Count)
system.cpu.fetch2.amoInstructions                  42                       # Number of memory atomic instructions successfully decoded (Count)
system.cpu.icache.demandHits::cpu.inst        9308316                       # number of demand (read+write) hits (Count)
system.cpu.icache.demandHits::total           9308316                       # number of demand (read+write) hits (Count)
system.cpu.icache.overallHits::cpu.inst       9308316                       # number of overall hits (Count)
system.cpu.icache.overallHits::total          9308316                       # number of overall hits (Count)
system.cpu.icache.demandMisses::cpu.inst          395                       # number of demand (read+write) misses (Count)
system.cpu.icache.demandMisses::total             395                       # number of demand (read+write) misses (Count)
system.cpu.icache.overallMisses::cpu.inst          395                       # number of overall misses (Count)
system.cpu.icache.overallMisses::total            395                       # number of overall misses (Count)
system.cpu.icache.demandMissLatency::cpu.inst     36977500                       # number of demand (read+write) miss ticks (Tick)
system.cpu.icache.demandMissLatency::total     36977500                       # number of demand (read+write) miss ticks (Tick)
system.cpu.icache.overallMissLatency::cpu.inst     36977500                       # number of overall miss ticks (Tick)
system.cpu.icache.overallMissLatency::total     36977500                       # number of overall miss ticks (Tick)
system.cpu.icache.demandAccesses::cpu.inst      9308711                       # number of demand (read+write) accesses (Count)
system.cpu.icache.demandAccesses::total       9308711                       # number of demand (read+write) accesses (Count)
system.cpu.icache.overallAccesses::cpu.inst      9308711                       # number of overall (read+write) accesses (Count)
system.cpu.icache.overallAccesses::total      9308711                       # number of overall (read+write) accesses (Count)
system.cpu.icache.demandMissRate::cpu.inst     0.000042                       # miss rate for demand accesses (Ratio)
system.cpu.icache.demandMissRate::total      0.000042                       # miss rate for demand accesses (Ratio)
system.cpu.icache.overallMissRate::cpu.inst     0.000042                       # miss rate for overall accesses (Ratio)
system.cpu.icache.overallMissRate::total     0.000042                       # miss rate for overall accesses (Ratio)
system.cpu.icache.demandAvgMissLatency::cpu.inst 93613.924051                       # average overall miss latency in ticks ((Tick/Count))
system.cpu.icache.demandAvgMissLatency::total 93613.924051                       # average overall miss latency in ticks ((Tick/Count))
system.cpu.icache.overallAvgMissLatency::cpu.inst 93613.924051                       # average overall miss latency ((Tick/Count))
system.cpu.icache.overallAvgMissLatency::total 93613.924051                       # average overall miss latency ((Tick/Count))
system.cpu.icache.blockedCycles::no_mshrs            0                       # number of cycles access was blocked (Cycle)
system.cpu.icache.blockedCycles::no_targets            0                       # number of cycles access was blocked (Cycle)
system.cpu.icache.blockedCauses::no_mshrs            0                       # number of times access was blocked (Count)
system.cpu.icache.blockedCauses::no_targets            0                       # number of times access was blocked (Count)
system.cpu.icache.avgBlocked::no_mshrs            nan                       # average number of cycles each access was blocked ((Cycle/Count))
system.cpu.icache.avgBlocked::no_targets          nan                       # average number of cycles each access was blocked ((Cycle/Count))
system.cpu.icache.writebacks::writebacks          331                       # number of writebacks (Count)
system.cpu.icache.writebacks::total               331                       # number of writebacks (Count)
system.cpu.icache.demandMshrMisses::cpu.inst          395                       # number of demand (read+write) MSHR misses (Count)
system.cpu.icache.demandMshrMisses::total          395                       # number of demand (read+write) MSHR misses (Count)
system.cpu.icache.overallMshrMisses::cpu.inst          395                       # number of overall MSHR misses (Count)
system.cpu.icache.overallMshrMisses::total          395                       # number of overall MSHR misses (Count)
system.cpu.icache.demandMshrMissLatency::cpu.inst     36582500                       # number of demand (read+write) MSHR miss ticks (Tick)
system.cpu.icache.demandMshrMissLatency::total     36582500                       # number of demand (read+write) MSHR miss ticks (Tick)
system.cpu.icache.overallMshrMissLatency::cpu.inst     36582500                       # number of overall MSHR miss ticks (Tick)
system.cpu.icache.overallMshrMissLatency::total     36582500                       # number of overall MSHR miss ticks (Tick)
system.cpu.icache.demandMshrMissRate::cpu.inst     0.000042                       # mshr miss ratio for demand accesses (Ratio)
system.cpu.icache.demandMshrMissRate::total     0.000042                       # mshr miss ratio for demand accesses (Ratio)
system.cpu.icache.overallMshrMissRate::cpu.inst     0.000042                       # mshr miss ratio for overall accesses (Ratio)
system.cpu.icache.overallMshrMissRate::total     0.000042                       # mshr miss ratio for overall accesses (Ratio)
system.cpu.icache.demandAvgMshrMissLatency::cpu.inst 92613.924051                       # average overall mshr miss latency ((Tick/Count))
system.cpu.icache.demandAvgMshrMissLatency::total 92613.924051                       # average overall mshr miss latency ((Tick/Count))
system.cpu.icache.overallAvgMshrMissLatency::cpu.inst 92613.924051                       # average overall mshr miss latency ((Tick/Count))
system.cpu.icache.overallAvgMshrMissLatency::total 92613.924051                       # average overall mshr miss latency ((Tick/Count))
system.cpu.icache.replacements                    331                       # number of replacements (Count)
system.cpu.icache.ReadReq.hits::cpu.inst      9308316                       # number of ReadReq hits (Count)
system.cpu.icache.ReadReq.hits::total         9308316                       # number of ReadReq hits (Count)
system.cpu.icache.ReadReq.misses::cpu.inst          395                       # number of ReadReq misses (Count)
system.cpu.icache.ReadReq.misses::total           395                       # number of ReadReq misses (Count)
system.cpu.icache.ReadReq.missLatency::cpu.inst     36977500                       # number of ReadReq miss ticks (Tick)
system.cpu.icache.ReadReq.missLatency::total     36977500                       # number of ReadReq miss ticks (Tick)
system.cpu.icache.ReadReq.accesses::cpu.inst      9308711                       # number of ReadReq accesses(hits+misses) (Count)
system.cpu.icache.ReadReq.accesses::total      9308711                       # number of ReadReq accesses(hits+misses) (Count)
system.cpu.icache.ReadReq.missRate::cpu.inst     0.000042                       # miss rate for ReadReq accesses (Ratio)
system.cpu.icache.ReadReq.missRate::total     0.000042                       # miss rate for ReadReq accesses (Ratio)
system.cpu.icache.ReadReq.avgMissLatency::cpu.inst 93613.924051                       # average ReadReq miss latency ((Tick/Count))
system.cpu.icache.ReadReq.avgMissLatency::total 93613.924051                       # average ReadReq miss latency ((Tick/Count))
system.cpu.icache.ReadReq.mshrMisses::cpu.inst          395                       # number of ReadReq MSHR misses (Count)
system.cpu.icache.ReadReq.mshrMisses::total          395                       # number of ReadReq MSHR misses (Count)
system.cpu.icache.ReadReq.mshrMissLatency::cpu.inst     36582500                       # number of ReadReq MSHR miss ticks (Tick)
system.cpu.icache.ReadReq.mshrMissLatency::total     36582500                       # number of ReadReq MSHR miss ticks (Tick)
system.cpu.icache.ReadReq.mshrMissRate::cpu.inst     0.000042                       # mshr miss rate for ReadReq accesses (Ratio)
system.cpu.icache.ReadReq.mshrMissRate::total     0.000042                       # mshr miss rate for ReadReq accesses (Ratio)
system.cpu.icache.ReadReq.avgMshrMissLatency::cpu.inst 92613.924051                       # average ReadReq mshr miss latency ((Tick/Count))
system.cpu.icache.ReadReq.avgMshrMissLatency::total 92613.924051                       # average ReadReq mshr miss latency ((Tick/Count))
system.cpu.icache.power_state.pwrStateResidencyTicks::UNDEFINED  83350810500                       # Cumulative time (in ticks) in various power states (Tick)
system.cpu.icache.tags.tagsInUse            63.917067                       # Average ticks per tags in use ((Tick/Count))
system.cpu.icache.tags.totalRefs              9308711                       # Total number of references to valid blocks. (Count)
system.cpu.icache.tags.sampledRefs                395                       # Sample count of references to valid blocks. (Count)
system.cpu.icache.tags.avgRefs           23566.356962                       # Average number of references to valid blocks. ((Count/Count))
system.cpu.icache.tags.warmupTick              122500                       # The tick when the warmup percentage was hit. (Tick)
system.cpu.icache.tags.occupancies::cpu.inst    63.917067                       # Average occupied blocks per tick, per requestor ((Count/Tick))
system.cpu.icache.tags.avgOccs::cpu.inst     0.998704                       # Average percentage of cache occupancy ((Ratio/Tick))
system.cpu.icache.tags.avgOccs::total        0.998704                       # Average percentage of cache occupancy ((Ratio/Tick))
system.cpu.icache.tags.occupanciesTaskId::1024           64                       # Occupied blocks per task id (Count)
system.cpu.icache.tags.ageTaskId_1024::4           64                       # Occupied blocks per task id, per block age (Count)
system.cpu.icache.tags.ratioOccsTaskId::1024            1                       # Ratio of occupied blocks and all blocks, per task id (Ratio)
system.cpu.icache.tags.tagAccesses           18617817                       # Number of tag accesses (Count)
system.cpu.icache.tags.dataAccesses          18617817                       # Number of data accesses (Count)
system.cpu.icache.tags.power_state.pwrStateResidencyTicks::UNDEFINED  83350810500                       # Cumulative time (in ticks) in various power states (Tick)
system.cpu.mmu.alignFaults                          0                       # Number of MMU faults due to alignment restrictions (Count)
system.cpu.mmu.prefetchFaults                       0                       # Number of MMU faults due to prefetch (Count)
system.cpu.mmu.domainFaults                         0                       # Number of MMU faults due to domain restrictions (Count)
system.cpu.mmu.permsFaults                          0                       # Number of MMU faults due to permissions restrictions (Count)
system.cpu.mmu.dtb.readHits                         0                       # Read hits (Count)
system.cpu.mmu.dtb.readMisses                       0                       # Read misses (Count)
system.cpu.mmu.dtb.writeHits                        0                       # Write hits (Count)
system.cpu.mmu.dtb.writeMisses                      0                       # Write misses (Count)
system.cpu.mmu.dtb.inserts                          0                       # Number of times an entry is inserted into the TLB (Count)
system.cpu.mmu.dtb.flushTlb                         0                       # Number of times complete TLB was flushed (Count)
system.cpu.mmu.dtb.flushTlbMva                      0                       # Number of times TLB was flushed by MVA (Count)
system.cpu.mmu.dtb.flushTlbMvaAsid                  0                       # Number of times TLB was flushed by MVA & ASID (Count)
system.cpu.mmu.dtb.flushTlbAsid                     0                       # Number of times TLB was flushed by ASID (Count)
system.cpu.mmu.dtb.flushedEntries                   0                       # Number of entries that have been flushed from TLB (Count)
system.cpu.mmu.dtb.readAccesses                     0                       # Read accesses (Count)
system.cpu.mmu.dtb.writeAccesses                    0                       # Write accesses (Count)
system.cpu.mmu.dtb.hits                             0                       # Total TLB (inst and data) hits (Count)
system.cpu.mmu.dtb.misses                           0                       # Total TLB (inst and data) misses (Count)
system.cpu.mmu.dtb.accesses                         0                       # Total TLB (inst and data) accesses (Count)
system.cpu.mmu.dtb_walker.walks                     0                       # Table walker walks requested (Count)
system.cpu.mmu.dtb_walker.requestOrigin_Requested::Data            0                       # Table walker requests started/completed, data/inst (Count)
system.cpu.mmu.dtb_walker.requestOrigin_Requested::Inst            0                       # Table walker requests started/completed, data/inst (Count)
system.cpu.mmu.dtb_walker.requestOrigin_Requested::total            0                       # Table walker requests started/completed, data/inst (Count)
system.cpu.mmu.dtb_walker.requestOrigin_Completed::Data            0                       # Table walker requests started/completed, data/inst (Count)
system.cpu.mmu.dtb_walker.requestOrigin_Completed::Inst            0                       # Table walker requests started/completed, data/inst (Count)
system.cpu.mmu.dtb_walker.requestOrigin_Completed::total            0                       # Table walker requests started/completed, data/inst (Count)
system.cpu.mmu.dtb_walker.requestOrigin::total            0                       # Table walker requests started/completed, data/inst (Count)
system.cpu.mmu.dtb_walker.power_state.pwrStateResidencyTicks::UNDEFINED  83350810500                       # Cumulative time (in ticks) in various power states (Tick)
system.cpu.mmu.itb.instHits                         0                       # Inst hits (Count)
system.cpu.mmu.itb.instMisses                       0                       # Inst misses (Count)
system.cpu.mmu.itb.inserts                          0                       # Number of times an entry is inserted into the TLB (Count)
system.cpu.mmu.itb.flushTlb                         0                       # Number of times complete TLB was flushed (Count)
system.cpu.mmu.itb.flushTlbMva                      0                       # Number of times TLB was flushed by MVA (Count)
system.cpu.mmu.itb.flushTlbMvaAsid                  0                       # Number of times TLB was flushed by MVA & ASID (Count)
system.cpu.mmu.itb.flushTlbAsid                     0                       # Number of times TLB was flushed by ASID (Count)
system.cpu.mmu.itb.flushedEntries                   0                       # Number of entries that have been flushed from TLB (Count)
system.cpu.mmu.itb.instAccesses                     0                       # Inst accesses (Count)
system.cpu.mmu.itb.hits                             0                       # Total TLB (inst and data) hits (Count)
system.cpu.mmu.itb.misses                           0                       # Total TLB (inst and data) misses (Count)
system.cpu.mmu.itb.accesses                         0                       # Total TLB (inst and data) accesses (Count)
system.cpu.mmu.itb_walker.walks                     0                       # Table walker walks requested (Count)
system.cpu.mmu.itb_walker.requestOrigin_Requested::Data            0                       # Table walker requests started/completed, data/inst (Count)
system.cpu.mmu.itb_walker.requestOrigin_Requested::Inst            0                       # Table walker requests started/completed, data/inst (Count)
system.cpu.mmu.itb_walker.requestOrigin_Requested::total            0                       # Table walker requests started/completed, data/inst (Count)
system.cpu.mmu.itb_walker.requestOrigin_Completed::Data            0                       # Table walker requests started/completed, data/inst (Count)
system.cpu.mmu.itb_walker.requestOrigin_Completed::Inst            0                       # Table walker requests started/completed, data/inst (Count)
system.cpu.mmu.itb_walker.requestOrigin_Completed::total            0                       # Table walker requests started/completed, data/inst (Count)
system.cpu.mmu.itb_walker.requestOrigin::total            0                       # Table walker requests started/completed, data/inst (Count)
system.cpu.mmu.itb_walker.power_state.pwrStateResidencyTicks::UNDEFINED  83350810500                       # Cumulative time (in ticks) in various power states (Tick)
system.cpu.mmu.l2_shared.instHits                   0                       # Inst hits (Count)
system.cpu.mmu.l2_shared.instMisses                 0                       # Inst misses (Count)
system.cpu.mmu.l2_shared.inserts                    0                       # Number of times an entry is inserted into the TLB (Count)
system.cpu.mmu.l2_shared.flushTlb                   0                       # Number of times complete TLB was flushed (Count)
system.cpu.mmu.l2_shared.flushTlbMva                0                       # Number of times TLB was flushed by MVA (Count)
system.cpu.mmu.l2_shared.flushTlbMvaAsid            0                       # Number of times TLB was flushed by MVA & ASID (Count)
system.cpu.mmu.l2_shared.flushTlbAsid               0                       # Number of times TLB was flushed by ASID (Count)
system.cpu.mmu.l2_shared.flushedEntries             0                       # Number of entries that have been flushed from TLB (Count)
system.cpu.mmu.l2_shared.instAccesses               0                       # Inst accesses (Count)
system.cpu.mmu.l2_shared.hits                       0                       # Total TLB (inst and data) hits (Count)
system.cpu.mmu.l2_shared.misses                     0                       # Total TLB (inst and data) misses (Count)
system.cpu.mmu.l2_shared.accesses                   0                       # Total TLB (inst and data) accesses (Count)
system.cpu.mmu.stage2_dtb.readHits                  0                       # Read hits (Count)
system.cpu.mmu.stage2_dtb.readMisses                0                       # Read misses (Count)
system.cpu.mmu.stage2_dtb.writeHits                 0                       # Write hits (Count)
system.cpu.mmu.stage2_dtb.writeMisses               0                       # Write misses (Count)
system.cpu.mmu.stage2_dtb.inserts                   0                       # Number of times an entry is inserted into the TLB (Count)
system.cpu.mmu.stage2_dtb.flushTlb                  0                       # Number of times complete TLB was flushed (Count)
system.cpu.mmu.stage2_dtb.flushTlbMva               0                       # Number of times TLB was flushed by MVA (Count)
system.cpu.mmu.stage2_dtb.flushTlbMvaAsid            0                       # Number of times TLB was flushed by MVA & ASID (Count)
system.cpu.mmu.stage2_dtb.flushTlbAsid              0                       # Number of times TLB was flushed by ASID (Count)
system.cpu.mmu.stage2_dtb.flushedEntries            0                       # Number of entries that have been flushed from TLB (Count)
system.cpu.mmu.stage2_dtb.readAccesses              0                       # Read accesses (Count)
system.cpu.mmu.stage2_dtb.writeAccesses             0                       # Write accesses (Count)
system.cpu.mmu.stage2_dtb.hits                      0                       # Total TLB (inst and data) hits (Count)
system.cpu.mmu.stage2_dtb.misses                    0                       # Total TLB (inst and data) misses (Count)
system.cpu.mmu.stage2_dtb.accesses                  0                       # Total TLB (inst and data) accesses (Count)
system.cpu.mmu.stage2_dtb_walker.walks              0                       # Table walker walks requested (Count)
system.cpu.mmu.stage2_dtb_walker.requestOrigin_Requested::Data            0                       # Table walker requests started/completed, data/inst (Count)
system.cpu.mmu.stage2_dtb_walker.requestOrigin_Requested::Inst            0                       # Table walker requests started/completed, data/inst (Count)
system.cpu.mmu.stage2_dtb_walker.requestOrigin_Requested::total            0                       # Table walker requests started/completed, data/inst (Count)
system.cpu.mmu.stage2_dtb_walker.requestOrigin_Completed::Data            0                       # Table walker requests started/completed, data/inst (Count)
system.cpu.mmu.stage2_dtb_walker.requestOrigin_Completed::Inst            0                       # Table walker requests started/completed, data/inst (Count)
system.cpu.mmu.stage2_dtb_walker.requestOrigin_Completed::total            0                       # Table walker requests started/completed, data/inst (Count)
system.cpu.mmu.stage2_dtb_walker.requestOrigin::total            0                       # Table walker requests started/completed, data/inst (Count)
system.cpu.mmu.stage2_dtb_walker.power_state.pwrStateResidencyTicks::UNDEFINED  83350810500                       # Cumulative time (in ticks) in various power states (Tick)
system.cpu.mmu.stage2_itb.instHits                  0                       # Inst hits (Count)
system.cpu.mmu.stage2_itb.instMisses                0                       # Inst misses (Count)
system.cpu.mmu.stage2_itb.inserts                   0                       # Number of times an entry is inserted into the TLB (Count)
system.cpu.mmu.stage2_itb.flushTlb                  0                       # Number of times complete TLB was flushed (Count)
system.cpu.mmu.stage2_itb.flushTlbMva               0                       # Number of times TLB was flushed by MVA (Count)
system.cpu.mmu.stage2_itb.flushTlbMvaAsid            0                       # Number of times TLB was flushed by MVA & ASID (Count)
system.cpu.mmu.stage2_itb.flushTlbAsid              0                       # Number of times TLB was flushed by ASID (Count)
system.cpu.mmu.stage2_itb.flushedEntries            0                       # Number of entries that have been flushed from TLB (Count)
system.cpu.mmu.stage2_itb.instAccesses              0                       # Inst accesses (Count)
system.cpu.mmu.stage2_itb.hits                      0                       # Total TLB (inst and data) hits (Count)
system.cpu.mmu.stage2_itb.misses                    0                       # Total TLB (inst and data) misses (Count)
system.cpu.mmu.stage2_itb.accesses                  0                       # Total TLB (inst and data) accesses (Count)
system.cpu.mmu.stage2_itb_walker.walks              0                       # Table walker walks requested (Count)
system.cpu.mmu.stage2_itb_walker.requestOrigin_Requested::Data            0                       # Table walker requests started/completed, data/inst (Count)
system.cpu.mmu.stage2_itb_walker.requestOrigin_Requested::Inst            0                       # Table walker requests started/completed, data/inst (Count)
system.cpu.mmu.stage2_itb_walker.requestOrigin_Requested::total            0                       # Table walker requests started/completed, data/inst (Count)
system.cpu.mmu.stage2_itb_walker.requestOrigin_Completed::Data            0                       # Table walker requests started/completed, data/inst (Count)
system.cpu.mmu.stage2_itb_walker.requestOrigin_Completed::Inst            0                       # Table walker requests started/completed, data/inst (Count)
system.cpu.mmu.stage2_itb_walker.requestOrigin_Completed::total            0                       # Table walker requests started/completed, data/inst (Count)
system.cpu.mmu.stage2_itb_walker.requestOrigin::total            0                       # Table walker requests started/completed, data/inst (Count)
system.cpu.mmu.stage2_itb_walker.power_state.pwrStateResidencyTicks::UNDEFINED  83350810500                       # Cumulative time (in ticks) in various power states (Tick)
system.cpu.power_state.pwrStateResidencyTicks::ON  83350810500                       # Cumulative time (in ticks) in various power states (Tick)
system.cpu.thread_0.numInsts                100000000                       # Number of Instructions committed (Count)
system.cpu.thread_0.numOps                  100677219                       # Number of Ops committed (Count)
system.cpu.thread_0.numMemRefs                      0                       # Number of Memory References (Count)
system.cpu.workload.numSyscalls                    84                       # Number of system calls (Count)
system.cpu_clk_domain.clock                       500                       # Clock period in ticks (Tick)
system.cpu_voltage_domain.voltage                   1                       # Voltage in Volts (Volt)
system.l2.demandHits::cpu.inst                    126                       # number of demand (read+write) hits (Count)
system.l2.demandHits::cpu.data                 846180                       # number of demand (read+write) hits (Count)
system.l2.demandHits::total                    846306                       # number of demand (read+write) hits (Count)
system.l2.overallHits::cpu.inst                   126                       # number of overall hits (Count)
system.l2.overallHits::cpu.data                846180                       # number of overall hits (Count)
system.l2.overallHits::total                   846306                       # number of overall hits (Count)
system.l2.demandMisses::cpu.inst                  269                       # number of demand (read+write) misses (Count)
system.l2.demandMisses::cpu.data                65439                       # number of demand (read+write) misses (Count)
system.l2.demandMisses::total                   65708                       # number of demand (read+write) misses (Count)
system.l2.overallMisses::cpu.inst                 269                       # number of overall misses (Count)
system.l2.overallMisses::cpu.data               65439                       # number of overall misses (Count)
system.l2.overallMisses::total                  65708                       # number of overall misses (Count)
system.l2.demandMissLatency::cpu.inst        33887000                       # number of demand (read+write) miss ticks (Tick)
system.l2.demandMissLatency::cpu.data     10396239000                       # number of demand (read+write) miss ticks (Tick)
system.l2.demandMissLatency::total        10430126000                       # number of demand (read+write) miss ticks (Tick)
system.l2.overallMissLatency::cpu.inst       33887000                       # number of overall miss ticks (Tick)
system.l2.overallMissLatency::cpu.data    10396239000                       # number of overall miss ticks (Tick)
system.l2.overallMissLatency::total       10430126000                       # number of overall miss ticks (Tick)
system.l2.demandAccesses::cpu.inst                395                       # number of demand (read+write) accesses (Count)
system.l2.demandAccesses::cpu.data             911619                       # number of demand (read+write) accesses (Count)
system.l2.demandAccesses::total                912014                       # number of demand (read+write) accesses (Count)
system.l2.overallAccesses::cpu.inst               395                       # number of overall (read+write) accesses (Count)
system.l2.overallAccesses::cpu.data            911619                       # number of overall (read+write) accesses (Count)
system.l2.overallAccesses::total               912014                       # number of overall (read+write) accesses (Count)
system.l2.demandMissRate::cpu.inst           0.681013                       # miss rate for demand accesses (Ratio)
system.l2.demandMissRate::cpu.data           0.071783                       # miss rate for demand accesses (Ratio)
system.l2.demandMissRate::total              0.072047                       # miss rate for demand accesses (Ratio)
system.l2.overallMissRate::cpu.inst          0.681013                       # miss rate for overall accesses (Ratio)
system.l2.overallMissRate::cpu.data          0.071783                       # miss rate for overall accesses (Ratio)
system.l2.overallMissRate::total             0.072047                       # miss rate for overall accesses (Ratio)
system.l2.demandAvgMissLatency::cpu.inst 125973.977695                       # average overall miss latency in ticks ((Tick/Count))
system.l2.demandAvgMissLatency::cpu.data 158869.160592                       # average overall miss latency in ticks ((Tick/Count))
system.l2.demandAvgMissLatency::total    158734.491995                       # average overall miss latency in ticks ((Tick/Count))
system.l2.overallAvgMissLatency::cpu.inst 125973.977695                       # average overall miss latency ((Tick/Count))
system.l2.overallAvgMissLatency::cpu.data 158869.160592                       # average overall miss latency ((Tick/Count))
system.l2.overallAvgMissLatency::total   158734.491995                       # average overall miss latency ((Tick/Count))
system.l2.blockedCycles::no_mshrs                   0                       # number of cycles access was blocked (Cycle)
system.l2.blockedCycles::no_targets                 0                       # number of cycles access was blocked (Cycle)
system.l2.blockedCauses::no_mshrs                   0                       # number of times access was blocked (Count)
system.l2.blockedCauses::no_targets                 0                       # number of times access was blocked (Count)
system.l2.avgBlocked::no_mshrs                    nan                       # average number of cycles each access was blocked ((Cycle/Count))
system.l2.avgBlocked::no_targets                  nan                       # average number of cycles each access was blocked ((Cycle/Count))
system.l2.writebacks::writebacks                44817                       # number of writebacks (Count)
system.l2.writebacks::total                     44817                       # number of writebacks (Count)
system.l2.demandMshrMisses::cpu.inst              269                       # number of demand (read+write) MSHR misses (Count)
system.l2.demandMshrMisses::cpu.data            65439                       # number of demand (read+write) MSHR misses (Count)
system.l2.demandMshrMisses::total               65708                       # number of demand (read+write) MSHR misses (Count)
system.l2.overallMshrMisses::cpu.inst             269                       # number of overall MSHR misses (Count)
system.l2.overallMshrMisses::cpu.data           65439                       # number of overall MSHR misses (Count)
system.l2.overallMshrMisses::total              65708                       # number of overall MSHR misses (Count)
system.l2.demandMshrMissLatency::cpu.inst     31197000                       # number of demand (read+write) MSHR miss ticks (Tick)
system.l2.demandMshrMissLatency::cpu.data   9741849000                       # number of demand (read+write) MSHR miss ticks (Tick)
system.l2.demandMshrMissLatency::total     9773046000                       # number of demand (read+write) MSHR miss ticks (Tick)
system.l2.overallMshrMissLatency::cpu.inst     31197000                       # number of overall MSHR miss ticks (Tick)
system.l2.overallMshrMissLatency::cpu.data   9741849000                       # number of overall MSHR miss ticks (Tick)
system.l2.overallMshrMissLatency::total    9773046000                       # number of overall MSHR miss ticks (Tick)
system.l2.demandMshrMissRate::cpu.inst       0.681013                       # mshr miss ratio for demand accesses (Ratio)
system.l2.demandMshrMissRate::cpu.data       0.071783                       # mshr miss ratio for demand accesses (Ratio)
system.l2.demandMshrMissRate::total          0.072047                       # mshr miss ratio for demand accesses (Ratio)
system.l2.overallMshrMissRate::cpu.inst      0.681013                       # mshr miss ratio for overall accesses (Ratio)
system.l2.overallMshrMissRate::cpu.data      0.071783                       # mshr miss ratio for overall accesses (Ratio)
system.l2.overallMshrMissRate::total         0.072047                       # mshr miss ratio for overall accesses (Ratio)
system.l2.demandAvgMshrMissLatency::cpu.inst 115973.977695                       # average overall mshr miss latency ((Tick/Count))
system.l2.demandAvgMshrMissLatency::cpu.data 148869.160592                       # average overall mshr miss latency ((Tick/Count))
system.l2.demandAvgMshrMissLatency::total 148734.491995                       # average overall mshr miss latency ((Tick/Count))
system.l2.overallAvgMshrMissLatency::cpu.inst 115973.977695                       # average overall mshr miss latency ((Tick/Count))
system.l2.overallAvgMshrMissLatency::cpu.data 148869.160592                       # average overall mshr miss latency ((Tick/Count))
system.l2.overallAvgMshrMissLatency::total 148734.491995                       # average overall mshr miss latency ((Tick/Count))
system.l2.replacements                          61712                       # number of replacements (Count)
system.l2.ReadCleanReq.hits::cpu.inst             126                       # number of ReadCleanReq hits (Count)
system.l2.ReadCleanReq.hits::total                126                       # number of ReadCleanReq hits (Count)
system.l2.ReadCleanReq.misses::cpu.inst           269                       # number of ReadCleanReq misses (Count)
system.l2.ReadCleanReq.misses::total              269                       # number of ReadCleanReq misses (Count)
system.l2.ReadCleanReq.missLatency::cpu.inst     33887000                       # number of ReadCleanReq miss ticks (Tick)
system.l2.ReadCleanReq.missLatency::total     33887000                       # number of ReadCleanReq miss ticks (Tick)
system.l2.ReadCleanReq.accesses::cpu.inst          395                       # number of ReadCleanReq accesses(hits+misses) (Count)
system.l2.ReadCleanReq.accesses::total            395                       # number of ReadCleanReq accesses(hits+misses) (Count)
system.l2.ReadCleanReq.missRate::cpu.inst     0.681013                       # miss rate for ReadCleanReq accesses (Ratio)
system.l2.ReadCleanReq.missRate::total       0.681013                       # miss rate for ReadCleanReq accesses (Ratio)
system.l2.ReadCleanReq.avgMissLatency::cpu.inst 125973.977695                       # average ReadCleanReq miss latency ((Tick/Count))
system.l2.ReadCleanReq.avgMissLatency::total 125973.977695                       # average ReadCleanReq miss latency ((Tick/Count))
system.l2.ReadCleanReq.mshrMisses::cpu.inst          269                       # number of ReadCleanReq MSHR misses (Count)
system.l2.ReadCleanReq.mshrMisses::total          269                       # number of ReadCleanReq MSHR misses (Count)
system.l2.ReadCleanReq.mshrMissLatency::cpu.inst     31197000                       # number of ReadCleanReq MSHR miss ticks (Tick)
system.l2.ReadCleanReq.mshrMissLatency::total     31197000                       # number of ReadCleanReq MSHR miss ticks (Tick)
system.l2.ReadCleanReq.mshrMissRate::cpu.inst     0.681013                       # mshr miss rate for ReadCleanReq accesses (Ratio)
system.l2.ReadCleanReq.mshrMissRate::total     0.681013                       # mshr miss rate for ReadCleanReq accesses (Ratio)
system.l2.ReadCleanReq.avgMshrMissLatency::cpu.inst 115973.977695                       # average ReadCleanReq mshr miss latency ((Tick/Count))
system.l2.ReadCleanReq.avgMshrMissLatency::total 115973.977695                       # average ReadCleanReq mshr miss latency ((Tick/Count))
system.l2.ReadExReq.hits::cpu.data             355375                       # number of ReadExReq hits (Count)
system.l2.ReadExReq.hits::total                355375                       # number of ReadExReq hits (Count)
system.l2.ReadExReq.misses::cpu.data            47536                       # number of ReadExReq misses (Count)
system.l2.ReadExReq.misses::total               47536                       # number of ReadExReq misses (Count)
system.l2.ReadExReq.missLatency::cpu.data   8103904000                       # number of ReadExReq miss ticks (Tick)
system.l2.ReadExReq.missLatency::total     8103904000                       # number of ReadExReq miss ticks (Tick)
system.l2.ReadExReq.accesses::cpu.data         402911                       # number of ReadExReq accesses(hits+misses) (Count)
system.l2.ReadExReq.accesses::total            402911                       # number of ReadExReq accesses(hits+misses) (Count)
system.l2.ReadExReq.missRate::cpu.data       0.117981                       # miss rate for ReadExReq accesses (Ratio)
system.l2.ReadExReq.missRate::total          0.117981                       # miss rate for ReadExReq accesses (Ratio)
system.l2.ReadExReq.avgMissLatency::cpu.data 170479.299899                       # average ReadExReq miss latency ((Tick/Count))
system.l2.ReadExReq.avgMissLatency::total 170479.299899                       # average ReadExReq miss latency ((Tick/Count))
system.l2.ReadExReq.mshrMisses::cpu.data        47536                       # number of ReadExReq MSHR misses (Count)
system.l2.ReadExReq.mshrMisses::total           47536                       # number of ReadExReq MSHR misses (Count)
system.l2.ReadExReq.mshrMissLatency::cpu.data   7628544000                       # number of ReadExReq MSHR miss ticks (Tick)
system.l2.ReadExReq.mshrMissLatency::total   7628544000                       # number of ReadExReq MSHR miss ticks (Tick)
system.l2.ReadExReq.mshrMissRate::cpu.data     0.117981                       # mshr miss rate for ReadExReq accesses (Ratio)
system.l2.ReadExReq.mshrMissRate::total      0.117981                       # mshr miss rate for ReadExReq accesses (Ratio)
system.l2.ReadExReq.avgMshrMissLatency::cpu.data 160479.299899                       # average ReadExReq mshr miss latency ((Tick/Count))
system.l2.ReadExReq.avgMshrMissLatency::total 160479.299899                       # average ReadExReq mshr miss latency ((Tick/Count))
system.l2.ReadSharedReq.hits::cpu.data         490805                       # number of ReadSharedReq hits (Count)
system.l2.ReadSharedReq.hits::total            490805                       # number of ReadSharedReq hits (Count)
system.l2.ReadSharedReq.misses::cpu.data        17903                       # number of ReadSharedReq misses (Count)
system.l2.ReadSharedReq.misses::total           17903                       # number of ReadSharedReq misses (Count)
system.l2.ReadSharedReq.missLatency::cpu.data   2292335000                       # number of ReadSharedReq miss ticks (Tick)
system.l2.ReadSharedReq.missLatency::total   2292335000                       # number of ReadSharedReq miss ticks (Tick)
system.l2.ReadSharedReq.accesses::cpu.data       508708                       # number of ReadSharedReq accesses(hits+misses) (Count)
system.l2.ReadSharedReq.accesses::total        508708                       # number of ReadSharedReq accesses(hits+misses) (Count)
system.l2.ReadSharedReq.missRate::cpu.data     0.035193                       # miss rate for ReadSharedReq accesses (Ratio)
system.l2.ReadSharedReq.missRate::total      0.035193                       # miss rate for ReadSharedReq accesses (Ratio)
system.l2.ReadSharedReq.avgMissLatency::cpu.data 128041.948277                       # average ReadSharedReq miss latency ((Tick/Count))
system.l2.ReadSharedReq.avgMissLatency::total 128041.948277                       # average ReadSharedReq miss latency ((Tick/Count))
system.l2.ReadSharedReq.mshrMisses::cpu.data        17903                       # number of ReadSharedReq MSHR misses (Count)
system.l2.ReadSharedReq.mshrMisses::total        17903                       # number of ReadSharedReq MSHR misses (Count)
system.l2.ReadSharedReq.mshrMissLatency::cpu.data   2113305000                       # number of ReadSharedReq MSHR miss ticks (Tick)
system.l2.ReadSharedReq.mshrMissLatency::total   2113305000                       # number of ReadSharedReq MSHR miss ticks (Tick)
system.l2.ReadSharedReq.mshrMissRate::cpu.data     0.035193                       # mshr miss rate for ReadSharedReq accesses (Ratio)
system.l2.ReadSharedReq.mshrMissRate::total     0.035193                       # mshr miss rate for ReadSharedReq accesses (Ratio)
system.l2.ReadSharedReq.avgMshrMissLatency::cpu.data 118041.948277                       # average ReadSharedReq mshr miss latency ((Tick/Count))
system.l2.ReadSharedReq.avgMshrMissLatency::total 118041.948277                       # average ReadSharedReq mshr miss latency ((Tick/Count))
system.l2.WritebackClean.hits::writebacks          327                       # number of WritebackClean hits (Count)
system.l2.WritebackClean.hits::total              327                       # number of WritebackClean hits (Count)
system.l2.WritebackClean.accesses::writebacks          327                       # number of WritebackClean accesses(hits+misses) (Count)
system.l2.WritebackClean.accesses::total          327                       # number of WritebackClean accesses(hits+misses) (Count)
system.l2.WritebackDirty.hits::writebacks       840840                       # number of WritebackDirty hits (Count)
system.l2.WritebackDirty.hits::total           840840                       # number of WritebackDirty hits (Count)
system.l2.WritebackDirty.accesses::writebacks       840840                       # number of WritebackDirty accesses(hits+misses) (Count)
system.l2.WritebackDirty.accesses::total       840840                       # number of WritebackDirty accesses(hits+misses) (Count)
system.l2.power_state.pwrStateResidencyTicks::UNDEFINED  83350810500                       # Cumulative time (in ticks) in various power states (Tick)
system.l2.tags.tagsInUse                  4009.414785                       # Average ticks per tags in use ((Tick/Count))
system.l2.tags.totalRefs                      1823830                       # Total number of references to valid blocks. (Count)
system.l2.tags.sampledRefs                      65808                       # Sample count of references to valid blocks. (Count)
system.l2.tags.avgRefs                      27.714412                       # Average number of references to valid blocks. ((Count/Count))
system.l2.tags.warmupTick                      112000                       # The tick when the warmup percentage was hit. (Tick)
system.l2.tags.occupancies::writebacks      24.750602                       # Average occupied blocks per tick, per requestor ((Count/Tick))
system.l2.tags.occupancies::cpu.inst        28.016041                       # Average occupied blocks per tick, per requestor ((Count/Tick))
system.l2.tags.occupancies::cpu.data      3956.648142                       # Average occupied blocks per tick, per requestor ((Count/Tick))
system.l2.tags.avgOccs::writebacks           0.006043                       # Average percentage of cache occupancy ((Ratio/Tick))
system.l2.tags.avgOccs::cpu.inst             0.006840                       # Average percentage of cache occupancy ((Ratio/Tick))
system.l2.tags.avgOccs::cpu.data             0.965979                       # Average percentage of cache occupancy ((Ratio/Tick))
system.l2.tags.avgOccs::total                0.978861                       # Average percentage of cache occupancy ((Ratio/Tick))
system.l2.tags.occupanciesTaskId::1024           4096                       # Occupied blocks per task id (Count)
system.l2.tags.ageTaskId_1024::2                  104                       # Occupied blocks per task id, per block age (Count)
system.l2.tags.ageTaskId_1024::3                 1161                       # Occupied blocks per task id, per block age (Count)
system.l2.tags.ageTaskId_1024::4                 2831                       # Occupied blocks per task id, per block age (Count)
system.l2.tags.ratioOccsTaskId::1024                1                       # Ratio of occupied blocks and all blocks, per task id (Ratio)
system.l2.tags.tagAccesses                   14656448                       # Number of tag accesses (Count)
system.l2.tags.dataAccesses                  14656448                       # Number of data accesses (Count)
system.l2.tags.power_state.pwrStateResidencyTicks::UNDEFINED  83350810500                       # Cumulative time (in ticks) in various power states (Tick)
system.mem_ctrls.avgPriority_writebacks::samples    358536.00                       # Average QoS priority value for accepted requests (Count)
system.mem_ctrls.avgPriority_cpu.inst::samples      2152.00                       # Average QoS priority value for accepted requests (Count)
system.mem_ctrls.avgPriority_cpu.data::samples    523315.00                       # Average QoS priority value for accepted requests (Count)
system.mem_ctrls.priorityMinLatency      0.000000018750                       # per QoS priority minimum request to response latency (Second)
system.mem_ctrls.priorityMaxLatency      0.080477756750                       # per QoS priority maximum request to response latency (Second)
system.mem_ctrls.numReadWriteTurnArounds        20728                       # Number of turnarounds from READ to WRITE (Count)
system.mem_ctrls.numWriteReadTurnArounds        20728                       # Number of turnarounds from WRITE to READ (Count)
system.mem_ctrls.numStayReadState              596561                       # Number of times bus staying in READ state (Count)
system.mem_ctrls.numStayWriteState             338667                       # Number of times bus staying in WRITE state (Count)
system.mem_ctrls.readReqs                       65708                       # Number of read requests accepted (Count)
system.mem_ctrls.writeReqs                      44817                       # Number of write requests accepted (Count)
system.mem_ctrls.readBursts                    525664                       # Number of controller read bursts, including those serviced by the write queue (Count)
system.mem_ctrls.writeBursts                   358536                       # Number of controller write bursts, including those merged in the write queue (Count)
system.mem_ctrls.servicedByWrQ                    197                       # Number of controller read bursts serviced by the write queue (Count)
system.mem_ctrls.mergedWrBursts                     0                       # Number of controller write bursts merged with an existing one (Count)
system.mem_ctrls.neitherReadNorWriteReqs            0                       # Number of requests that are neither read nor write (Count)
system.mem_ctrls.avgRdQLen                       8.29                       # Average read queue length when enqueuing ((Count/Tick))
system.mem_ctrls.avgWrQLen                      28.69                       # Average write queue length when enqueuing ((Count/Tick))
system.mem_ctrls.numRdRetry                         0                       # Number of times read queue was full causing retry (Count)
system.mem_ctrls.numWrRetry                        46                       # Number of times write queue was full causing retry (Count)
system.mem_ctrls.readPktSize::0                     0                       # Read request sizes (log2) (Count)
system.mem_ctrls.readPktSize::1                     0                       # Read request sizes (log2) (Count)
system.mem_ctrls.readPktSize::2                     0                       # Read request sizes (log2) (Count)
system.mem_ctrls.readPktSize::3                     0                       # Read request sizes (log2) (Count)
system.mem_ctrls.readPktSize::4                     0                       # Read request sizes (log2) (Count)
system.mem_ctrls.readPktSize::5                     0                       # Read request sizes (log2) (Count)
system.mem_ctrls.readPktSize::6                525664                       # Read request sizes (log2) (Count)
system.mem_ctrls.readPktSize::7                     0                       # Read request sizes (log2) (Count)
system.mem_ctrls.readPktSize::8                     0                       # Read request sizes (log2) (Count)
system.mem_ctrls.readPktSize::9                     0                       # Read request sizes (log2) (Count)
system.mem_ctrls.writePktSize::0                    0                       # Write request sizes (log2) (Count)
system.mem_ctrls.writePktSize::1                    0                       # Write request sizes (log2) (Count)
system.mem_ctrls.writePktSize::2                    0                       # Write request sizes (log2) (Count)
system.mem_ctrls.writePktSize::3                    0                       # Write request sizes (log2) (Count)
system.mem_ctrls.writePktSize::4                    0                       # Write request sizes (log2) (Count)
system.mem_ctrls.writePktSize::5                    0                       # Write request sizes (log2) (Count)
system.mem_ctrls.writePktSize::6               358536                       # Write request sizes (log2) (Count)
system.mem_ctrls.writePktSize::7                    0                       # Write request sizes (log2) (Count)
system.mem_ctrls.writePktSize::8                    0                       # Write request sizes (log2) (Count)
system.mem_ctrls.writePktSize::9                    0                       # Write request sizes (log2) (Count)
system.mem_ctrls.rdQLenPdf::0                   48789                       # What read queue length does an incoming req see (Count)
system.mem_ctrls.rdQLenPdf::1                   48852                       # What read queue length does an incoming req see (Count)
system.mem_ctrls.rdQLenPdf::2                   48909                       # What read queue length does an incoming req see (Count)
system.mem_ctrls.rdQLenPdf::3                   49065                       # What read queue length does an incoming req see (Count)
system.mem_ctrls.rdQLenPdf::4                   49140                       # What read queue length does an incoming req see (Count)
system.mem_ctrls.rdQLenPdf::5                   49210                       # What read queue length does an incoming req see (Count)
system.mem_ctrls.rdQLenPdf::6                   49838                       # What read queue length does an incoming req see (Count)
system.mem_ctrls.rdQLenPdf::7                   50355                       # What read queue length does an incoming req see (Count)
system.mem_ctrls.rdQLenPdf::8                   16895                       # What read queue length does an incoming req see (Count)
system.mem_ctrls.rdQLenPdf::9                   16826                       # What read queue length does an incoming req see (Count)
system.mem_ctrls.rdQLenPdf::10                  16770                       # What read queue length does an incoming req see (Count)
system.mem_ctrls.rdQLenPdf::11                  16614                       # What read queue length does an incoming req see (Count)
system.mem_ctrls.rdQLenPdf::12                  16539                       # What read queue length does an incoming req see (Count)
system.mem_ctrls.rdQLenPdf::13                  16469                       # What read queue length does an incoming req see (Count)
system.mem_ctrls.rdQLenPdf::14                  15841                       # What read queue length does an incoming req see (Count)
system.mem_ctrls.rdQLenPdf::15                  15325                       # What read queue length does an incoming req see (Count)
system.mem_ctrls.rdQLenPdf::16                      4                       # What read queue length does an incoming req see (Count)
system.mem_ctrls.rdQLenPdf::17                      4                       # What read queue length does an incoming req see (Count)
system.mem_ctrls.rdQLenPdf::18                      4                       # What read queue length does an incoming req see (Count)
system.mem_ctrls.rdQLenPdf::19                      4                       # What read queue length does an incoming req see (Count)
[...]
system.mem_ctrls.dram.perBankWrBursts::9        22152                       # Per bank write bursts (Count)
system.mem_ctrls.dram.perBankWrBursts::10        22504                       # Per bank write bursts (Count)
system.mem_ctrls.dram.perBankWrBursts::11        22072                       # Per bank write bursts (Count)
system.mem_ctrls.dram.perBankWrBursts::12        22968                       # Per bank write bursts (Count)
system.mem_ctrls.dram.perBankWrBursts::13        22832                       # Per bank write bursts (Count)
system.mem_ctrls.dram.perBankWrBursts::14        23376                       # Per bank write bursts (Count)
system.mem_ctrls.dram.perBankWrBursts::15        22176                       # Per bank write bursts (Count)
system.mem_ctrls.dram.totQLat             35337569250                       # Total ticks spent queuing (Tick)
system.mem_ctrls.dram.totBusLat            2627335000                       # Total ticks spent in databus transfers (Tick)
system.mem_ctrls.dram.totMemAccLat        45190075500                       # Total ticks spent from burst creation until serviced by the DRAM (Tick)
system.mem_ctrls.dram.avgQLat                67249.84                       # Average queueing delay per DRAM burst ((Tick/Count))
system.mem_ctrls.dram.avgBusLat               5000.00                       # Average bus latency per DRAM burst ((Tick/Count))
system.mem_ctrls.dram.avgMemAccLat           85999.84                       # Average memory access latency per DRAM burst ((Tick/Count))
system.mem_ctrls.dram.readRowHits              485058                       # Number of row buffer hits during reads (Count)
system.mem_ctrls.dram.writeRowHits             324908                       # Number of row buffer hits during writes (Count)
system.mem_ctrls.dram.readRowHitRate            92.31                       # Row buffer hit rate for reads (Ratio)
system.mem_ctrls.dram.writeRowHitRate           90.62                       # Row buffer hit rate for writes (Ratio)
system.mem_ctrls.dram.bytesPerActivate::samples        74022                       # Bytes accessed per row activation (Byte)
system.mem_ctrls.dram.bytesPerActivate::mean   764.302937                       # Bytes accessed per row activation (Byte)
system.mem_ctrls.dram.bytesPerActivate::gmean   669.838359                       # Bytes accessed per row activation (Byte)
system.mem_ctrls.dram.bytesPerActivate::stdev   299.826473                       # Bytes accessed per row activation (Byte)
system.mem_ctrls.dram.bytesPerActivate::0-127         2354      3.18%      3.18% # Bytes accessed per row activation (Byte)
system.mem_ctrls.dram.bytesPerActivate::128-255         1970      2.66%      5.84% # Bytes accessed per row activation (Byte)
system.mem_ctrls.dram.bytesPerActivate::256-383         1295      1.75%      7.59% # Bytes accessed per row activation (Byte)
system.mem_ctrls.dram.bytesPerActivate::384-511         2543      3.44%     11.03% # Bytes accessed per row activation (Byte)
system.mem_ctrls.dram.bytesPerActivate::512-639        23660     31.96%     42.99% # Bytes accessed per row activation (Byte)
system.mem_ctrls.dram.bytesPerActivate::640-767          872      1.18%     44.17% # Bytes accessed per row activation (Byte)
system.mem_ctrls.dram.bytesPerActivate::768-895         1021      1.38%     45.55% # Bytes accessed per row activation (Byte)
system.mem_ctrls.dram.bytesPerActivate::896-1023         1543      2.08%     47.63% # Bytes accessed per row activation (Byte)
system.mem_ctrls.dram.bytesPerActivate::1024-1151        38764     52.37%    100.00% # Bytes accessed per row activation (Byte)
system.mem_ctrls.dram.bytesPerActivate::total        74022                       # Bytes accessed per row activation (Byte)
system.mem_ctrls.dram.bytesRead              33629888                       # Total bytes read (Byte)
system.mem_ctrls.dram.bytesWritten           22945344                       # Total bytes written (Byte)
system.mem_ctrls.dram.avgRdBW              403.474037                       # Average DRAM read bandwidth in MiBytes/s ((Byte/Second))
system.mem_ctrls.dram.avgWrBW              275.286393                       # Average DRAM write bandwidth in MiBytes/s ((Byte/Second))
system.mem_ctrls.dram.peakBW                 12800.00                       # Theoretical peak bandwidth in MiByte/s ((Byte/Second))
system.mem_ctrls.dram.busUtil                    5.30                       # Data bus utilization in percentage (Ratio)
system.mem_ctrls.dram.busUtilRead                3.15                       # Data bus utilization in percentage for reads (Ratio)
system.mem_ctrls.dram.busUtilWrite               2.15                       # Data bus utilization in percentage for writes (Ratio)
system.mem_ctrls.dram.pageHitRate               91.63                       # Row buffer hit rate, read and write combined (Ratio)
system.mem_ctrls.dram.power_state.pwrStateResidencyTicks::UNDEFINED  83350810500                       # Cumulative time (in ticks) in various power states (Tick)
system.mem_ctrls.dram.rank0.actEnergy       261859500                       # Energy for activate commands per rank (pJ) (Joule)
system.mem_ctrls.dram.rank0.preEnergy       139181625                       # Energy for precharge commands per rank (pJ) (Joule)
system.mem_ctrls.dram.rank0.readEnergy     1863768480                       # Energy for read commands per rank (pJ) (Joule)
system.mem_ctrls.dram.rank0.writeEnergy     931378500                       # Energy for write commands per rank (pJ) (Joule)
system.mem_ctrls.dram.rank0.refreshEnergy 6579106560.000001                       # Energy for refresh commands per rank (pJ) (Joule)
system.mem_ctrls.dram.rank0.actBackEnergy  10256175870                       # Energy for active background per rank (pJ) (Joule)
system.mem_ctrls.dram.rank0.preBackEnergy  23369931840                       # Energy for precharge background per rank (pJ) (Joule)
system.mem_ctrls.dram.rank0.actPowerDownEnergy            0                       # Energy for active power-down per rank (pJ) (Joule)
system.mem_ctrls.dram.rank0.prePowerDownEnergy            0                       # Energy for precharge power-down per rank (pJ) (Joule)
system.mem_ctrls.dram.rank0.selfRefreshEnergy            0                       # Energy for self refresh per rank (pJ) (Joule)
system.mem_ctrls.dram.rank0.totalEnergy   43401402375                       # Total energy per rank (pJ) (Joule)
system.mem_ctrls.dram.rank0.averagePower   520.707623                       # Core power per rank (mW) (Watt)
system.mem_ctrls.dram.rank0.totalIdleTime            0                       # Total Idle time Per DRAM Rank (Tick)
system.mem_ctrls.dram.rank0.pwrStateTime::IDLE  60578544750                       # Time in different power states (Tick)
system.mem_ctrls.dram.rank0.pwrStateTime::REF   2783040000                       # Time in different power states (Tick)
system.mem_ctrls.dram.rank0.pwrStateTime::SREF            0                       # Time in different power states (Tick)
system.mem_ctrls.dram.rank0.pwrStateTime::PRE_PDN            0                       # Time in different power states (Tick)
system.mem_ctrls.dram.rank0.pwrStateTime::ACT  19989225750                       # Time in different power states (Tick)
system.mem_ctrls.dram.rank0.pwrStateTime::ACT_PDN            0                       # Time in different power states (Tick)
system.mem_ctrls.dram.rank1.actEnergy       266657580                       # Energy for activate commands per rank (pJ) (Joule)
system.mem_ctrls.dram.rank1.preEnergy       141731865                       # Energy for precharge commands per rank (pJ) (Joule)
system.mem_ctrls.dram.rank1.readEnergy     1888065900                       # Energy for read commands per rank (pJ) (Joule)
system.mem_ctrls.dram.rank1.writeEnergy     940101120                       # Energy for write commands per rank (pJ) (Joule)
system.mem_ctrls.dram.rank1.refreshEnergy 6579106560.000001                       # Energy for refresh commands per rank (pJ) (Joule)
system.mem_ctrls.dram.rank1.actBackEnergy  10503474930                       # Energy for active background per rank (pJ) (Joule)
system.mem_ctrls.dram.rank1.preBackEnergy  23161680000                       # Energy for precharge background per rank (pJ) (Joule)
system.mem_ctrls.dram.rank1.actPowerDownEnergy            0                       # Energy for active power-down per rank (pJ) (Joule)
system.mem_ctrls.dram.rank1.prePowerDownEnergy            0                       # Energy for precharge power-down per rank (pJ) (Joule)
system.mem_ctrls.dram.rank1.selfRefreshEnergy            0                       # Energy for self refresh per rank (pJ) (Joule)
system.mem_ctrls.dram.rank1.totalEnergy   43480817955                       # Total energy per rank (pJ) (Joule)
system.mem_ctrls.dram.rank1.averagePower   521.660410                       # Core power per rank (mW) (Watt)
system.mem_ctrls.dram.rank1.totalIdleTime            0                       # Total Idle time Per DRAM Rank (Tick)
system.mem_ctrls.dram.rank1.pwrStateTime::IDLE  60035491250                       # Time in different power states (Tick)
system.mem_ctrls.dram.rank1.pwrStateTime::REF   2783040000                       # Time in different power states (Tick)
system.mem_ctrls.dram.rank1.pwrStateTime::SREF            0                       # Time in different power states (Tick)
system.mem_ctrls.dram.rank1.pwrStateTime::PRE_PDN            0                       # Time in different power states (Tick)
system.mem_ctrls.dram.rank1.pwrStateTime::ACT  20532279250                       # Time in different power states (Tick)
system.mem_ctrls.dram.rank1.pwrStateTime::ACT_PDN            0                       # Time in different power states (Tick)
system.mem_ctrls.power_state.pwrStateResidencyTicks::UNDEFINED  83350810500                       # Cumulative time (in ticks) in various power states (Tick)
system.membus.transDist::ReadResp               18172                       # Transaction distribution (Count)
system.membus.transDist::WritebackDirty         44817                       # Transaction distribution (Count)
system.membus.transDist::CleanEvict             16732                       # Transaction distribution (Count)
system.membus.transDist::ReadExReq              47536                       # Transaction distribution (Count)
system.membus.transDist::ReadExResp             47536                       # Transaction distribution (Count)
system.membus.transDist::ReadSharedReq          18172                       # Transaction distribution (Count)
system.membus.pktCount_system.l2.mem_side_port::system.mem_ctrls.port       192965                       # Packet count per connected requestor and responder (Count)
system.membus.pktCount::total                  192965                       # Packet count per connected requestor and responder (Count)
system.membus.pktSize_system.l2.mem_side_port::system.mem_ctrls.port     56588800                       # Cumulative packet size per connected requestor and responder (Byte)
system.membus.pktSize::total                 56588800                       # Cumulative packet size per connected requestor and responder (Byte)
system.membus.snoops                                0                       # Total snoops (Count)
system.membus.snoopTraffic                          0                       # Total snoop traffic (Byte)
system.membus.snoopFanout::samples              65708                       # Request fanout histogram (Count)
system.membus.snoopFanout::mean                     0                       # Request fanout histogram (Count)
system.membus.snoopFanout::stdev                    0                       # Request fanout histogram (Count)
system.membus.snoopFanout::underflows               0      0.00%      0.00% # Request fanout histogram (Count)
system.membus.snoopFanout::0                    65708    100.00%    100.00% # Request fanout histogram (Count)
system.membus.snoopFanout::1                        0      0.00%    100.00% # Request fanout histogram (Count)
system.membus.snoopFanout::overflows                0      0.00%    100.00% # Request fanout histogram (Count)
system.membus.snoopFanout::min_value                0                       # Request fanout histogram (Count)
system.membus.snoopFanout::max_value                0                       # Request fanout histogram (Count)
system.membus.snoopFanout::total                65708                       # Request fanout histogram (Count)
system.membus.power_state.pwrStateResidencyTicks::UNDEFINED  83350810500                       # Cumulative time (in ticks) in various power states (Tick)
system.membus.reqLayer0.occupancy          1571205750                       # Layer occupancy (ticks) (Tick)
system.membus.reqLayer0.utilization               0.0                       # Layer utilization (Ratio)
system.membus.respLayer1.occupancy         2194987000                       # Layer occupancy (ticks) (Tick)
system.membus.respLayer1.utilization              0.0                       # Layer utilization (Ratio)
system.membus.snoop_filter.totRequests         127303                       # Total number of requests made to the snoop filter. (Count)
system.membus.snoop_filter.hitSingleRequests        61595                       # Number of requests hitting in the snoop filter with a single holder of the requested data. (Count)
system.membus.snoop_filter.hitMultiRequests            0                       # Number of requests hitting in the snoop filter with multiple (>1) holders of the requested data. (Count)
system.membus.snoop_filter.totSnoops                0                       # Total number of snoops made to the snoop filter. (Count)
system.membus.snoop_filter.hitSingleSnoops            0                       # Number of snoops hitting in the snoop filter with a single holder of the requested data. (Count)
system.membus.snoop_filter.hitMultiSnoops            0                       # Number of snoops hitting in the snoop filter with multiple (>1) holders of the requested data. (Count)
system.tol2bus.transDist::ReadResp             509103                       # Transaction distribution (Count)
system.tol2bus.transDist::WritebackDirty       885657                       # Transaction distribution (Count)
system.tol2bus.transDist::WritebackClean          331                       # Transaction distribution (Count)
system.tol2bus.transDist::CleanEvict            87546                       # Transaction distribution (Count)
system.tol2bus.transDist::ReadExReq            402911                       # Transaction distribution (Count)
system.tol2bus.transDist::ReadExResp           402911                       # Transaction distribution (Count)
system.tol2bus.transDist::ReadCleanReq            395                       # Transaction distribution (Count)
system.tol2bus.transDist::ReadSharedReq        508708                       # Transaction distribution (Count)
system.tol2bus.pktCount_system.cpu.icache.mem_side_port::system.l2.cpu_side_port         1121                       # Packet count per connected requestor and responder (Count)
system.tol2bus.pktCount_system.cpu.dcache.mem_side_port::system.l2.cpu_side_port      2734729                       # Packet count per connected requestor and responder (Count)
system.tol2bus.pktCount::total                2735850                       # Packet count per connected requestor and responder (Count)
system.tol2bus.pktSize_system.cpu.icache.mem_side_port::system.l2.cpu_side_port       371712                       # Cumulative packet size per connected requestor and responder (Byte)
system.tol2bus.pktSize_system.cpu.dcache.mem_side_port::system.l2.cpu_side_port    897259008                       # Cumulative packet size per connected requestor and responder (Byte)
system.tol2bus.pktSize::total               897630720                       # Cumulative packet size per connected requestor and responder (Byte)
system.tol2bus.snoops                           61712                       # Total snoops (Count)
system.tol2bus.snoopTraffic                  22946304                       # Total snoop traffic (Byte)
system.tol2bus.snoopFanout::samples            973726                       # Request fanout histogram (Count)
system.tol2bus.snoopFanout::mean             0.000174                       # Request fanout histogram (Count)
system.tol2bus.snoopFanout::stdev            0.013173                       # Request fanout histogram (Count)
system.tol2bus.snoopFanout::underflows              0      0.00%      0.00% # Request fanout histogram (Count)
system.tol2bus.snoopFanout::0                  973557     99.98%     99.98% # Request fanout histogram (Count)
system.tol2bus.snoopFanout::1                     169      0.02%    100.00% # Request fanout histogram (Count)
system.tol2bus.snoopFanout::2                       0      0.00%    100.00% # Request fanout histogram (Count)
system.tol2bus.snoopFanout::overflows               0      0.00%    100.00% # Request fanout histogram (Count)
system.tol2bus.snoopFanout::min_value               0                       # Request fanout histogram (Count)
system.tol2bus.snoopFanout::max_value               1                       # Request fanout histogram (Count)
system.tol2bus.snoopFanout::total              973726                       # Request fanout histogram (Count)
system.tol2bus.power_state.pwrStateResidencyTicks::UNDEFINED  83350810500                       # Cumulative time (in ticks) in various power states (Tick)
system.tol2bus.reqLayer0.occupancy         7641286000                       # Layer occupancy (ticks) (Tick)
system.tol2bus.reqLayer0.utilization              0.1                       # Layer utilization (Ratio)
system.tol2bus.respLayer0.occupancy           3357500                       # Layer occupancy (ticks) (Tick)
system.tol2bus.respLayer0.utilization             0.0                       # Layer utilization (Ratio)
system.tol2bus.respLayer1.occupancy        7748761500                       # Layer occupancy (ticks) (Tick)
system.tol2bus.respLayer1.utilization             0.1                       # Layer utilization (Ratio)
system.tol2bus.snoop_filter.totRequests       1823836                       # Total number of requests made to the snoop filter. (Count)
system.tol2bus.snoop_filter.hitSingleRequests       911822                       # Number of requests hitting in the snoop filter with a single holder of the requested data. (Count)
system.tol2bus.snoop_filter.hitMultiRequests            6                       # Number of requests hitting in the snoop filter with multiple (>1) holders of the requested data. (Count)
system.tol2bus.snoop_filter.totSnoops             163                       # Total number of snoops made to the snoop filter. (Count)
system.tol2bus.snoop_filter.hitSingleSnoops          163                       # Number of snoops hitting in the snoop filter with a single holder of the requested data. (Count)
system.tol2bus.snoop_filter.hitMultiSnoops            0                       # Number of snoops hitting in the snoop filter with multiple (>1) holders of the requested data. (Count)
system.voltage_domain.voltage                       1                       # Voltage in Volts (Volt)
system.workload.inst.arm                            0                       # number of arm instructions executed (Count)
system.workload.inst.quiesce                        0                       # number of quiesce instructions executed (Count)
system.cpu.idleCycles                        35291873                       # Total number of cycles that the object has spent stopped (Unspecified)
system.cpu.tickCycles                       131409748                       # Number of cycles that the object actually ticked (Unspecified)

---------- End Simulation Statistics   ----------
