
---------- Begin Simulation Statistics ----------
simSeconds                                   0.143695                       # Number of seconds simulated (Second)
simTicks                                 143694904500                       # Number of ticks simulated (Tick)
finalTick                                143694904500                       # Number of ticks from beginning of simulation (restored from checkpoints and never reset) (Tick)
simFreq                                  1000000000000                       # The number of ticks per simulated second ((Tick/Second))
hostSeconds                                    370.34                       # Real time elapsed on the host (Second)
hostTickRate                                388007681                       # The number of ticks simulated per host second (ticks/s) ((Tick/Second))
hostMemory                                     680796                       # Number of bytes of host memory used (Byte)
simInsts                                    100000000                       # Number of instructions simulated (Count)
simOps                                      100677219                       # Number of ops (including micro ops) simulated (Count)
hostInstRate                                   270022                       # Simulator instruction rate (inst/s) ((Count/Second))
hostOpRate                                     271850                       # Simulator op (including micro ops) rate (op/s) ((Count/Second))
system.clk_domain.clock                          1000                       # Clock period in ticks (Tick)
system.cpu.numCycles                        287389809                       # Number of cpu cycles simulated (Cycle)
system.cpu.numWorkItemsStarted                      0                       # Number of work items this cpu started (Count)
system.cpu.numWorkItemsCompleted                    0                       # Number of work items this cpu completed (Count)
system.cpu.numInsts                         100000000                       # Number of instructions committed (Count)
system.cpu.numOps                           100677219                       # Number of ops (including micro ops) committed (Count)
system.cpu.numDiscardedOps                     489848                       # Number of ops (including micro ops) which were discarded before commit (Count)
system.cpu.numFetchSuspends                         0                       # Number of times Execute suspended instruction fetching (Count)
system.cpu.cpi                               2.873898                       # CPI: cycles per instruction ((Cycle/Count))
system.cpu.ipc                               0.347959                       # IPC: instructions per cycle ((Count/Cycle))
system.cpu.committedInstType_0::No_OpClass           47      0.00%      0.00% # Class of committed instruction (Count)
system.cpu.committedInstType_0::IntAlu       40121112     39.85%     39.85% # Class of committed instruction (Count)
system.cpu.committedInstType_0::IntMult         20664      0.02%     39.87% # Class of committed instruction (Count)
system.cpu.committedInstType_0::IntDiv              4      0.00%     39.87% # Class of committed instruction (Count)
system.cpu.committedInstType_0::FloatAdd            0      0.00%     39.87% # Class of committed instruction (Count)
system.cpu.committedInstType_0::FloatCmp            0      0.00%     39.87% # Class of committed instruction (Count)
system.cpu.committedInstType_0::FloatCvt            0      0.00%     39.87% # Class of committed instruction (Count)
system.cpu.committedInstType_0::FloatMult            0      0.00%     39.87% # Class of committed instruction (Count)
system.cpu.committedInstType_0::FloatMultAcc            0      0.00%     39.87% # Class of committed instruction (Count)
system.cpu.committedInstType_0::FloatDiv            0      0.00%     39.87% # Class of committed instruction (Count)
system.cpu.committedInstType_0::FloatMisc           16      0.00%     39.87% # Class of committed instruction (Count)
system.cpu.committedInstType_0::FloatSqrt            0      0.00%     39.87% # Class of committed instruction (Count)
system.cpu.committedInstType_0::SimdAdd            11      0.00%     39.87% # Class of committed instruction (Count)
system.cpu.committedInstType_0::SimdAddAcc            0      0.00%     39.87% # Class of committed instruction (Count)
system.cpu.committedInstType_0::SimdAlu            14      0.00%     39.87% # Class of committed instruction (Count)
system.cpu.committedInstType_0::SimdCmp            29      0.00%     39.87% # Class of committed instruction (Count)
system.cpu.committedInstType_0::SimdCvt             0      0.00%     39.87% # Class of committed instruction (Count)
system.cpu.committedInstType_0::SimdMisc           19      0.00%     39.87% # Class of committed instruction (Count)
system.cpu.committedInstType_0::SimdMult            0      0.00%     39.87% # Class of committed instruction (Count)
system.cpu.committedInstType_0::SimdMultAcc            0      0.00%     39.87% # Class of committed instruction (Count)
system.cpu.committedInstType_0::SimdShift            0      0.00%     39.87% # Class of committed instruction (Count)
system.cpu.committedInstType_0::SimdShiftAcc            0      0.00%     39.87% # Class of committed instruction (Count)
system.cpu.committedInstType_0::SimdDiv             0      0.00%     39.87% # Class of committed instruction (Count)
system.cpu.committedInstType_0::SimdSqrt            0      0.00%     39.87% # Class of committed instruction (Count)
system.cpu.committedInstType_0::SimdFloatAdd            0      0.00%     39.87% # Class of committed instruction (Count)
system.cpu.committedInstType_0::SimdFloatAlu            0      0.00%     39.87% # Class of committed instruction (Count)
system.cpu.committedInstType_0::SimdFloatCmp            0      0.00%     39.87% # Class of committed instruction (Count)
system.cpu.committedInstType_0::SimdFloatCvt            0      0.00%     39.87% # Class of committed instruction (Count)
system.cpu.committedInstType_0::SimdFloatDiv            0      0.00%     39.87% # Class of committed instruction (Count)
system.cpu.committedInstType_0::SimdFloatMisc            0      0.00%     39.87% # Class of committed instruction (Count)
system.cpu.committedInstType_0::SimdFloatMult            0      0.00%     39.87% # Class of committed instruction (Count)
system.cpu.committedInstType_0::SimdFloatMultAcc            0      0.00%     39.87% # Class of committed instruction (Count)
system.cpu.committedInstType_0::SimdFloatSqrt            0      0.00%     39.87% # Class of committed instruction (Count)
system.cpu.committedInstType_0::SimdReduceAdd            0      0.00%     39.87% # Class of committed instruction (Count)
system.cpu.committedInstType_0::SimdReduceAlu            0      0.00%     39.87% # Class of committed instruction (Count)
system.cpu.committedInstType_0::SimdReduceCmp            0      0.00%     39.87% # Class of committed instruction (Count)
system.cpu.committedInstType_0::SimdFloatReduceAdd            0      0.00%     39.87% # Class of committed instruction (Count)
system.cpu.committedInstType_0::SimdFloatReduceCmp            0      0.00%     39.87% # Class of committed instruction (Count)
system.cpu.committedInstType_0::SimdAes             0      0.00%     39.87% # Class of committed instruction (Count)
system.cpu.committedInstType_0::SimdAesMix            0      0.00%     39.87% # Class of committed instruction (Count)
system.cpu.committedInstType_0::SimdSha1Hash            0      0.00%     39.87% # Class of committed instruction (Count)
system.cpu.committedInstType_0::SimdSha1Hash2            0      0.00%     39.87% # Class of committed instruction (Count)
system.cpu.committedInstType_0::SimdSha256Hash            0      0.00%     39.87% # Class of committed instruction (Count)
system.cpu.committedInstType_0::SimdSha256Hash2            0      0.00%     39.87% # Class of committed instruction (Count)
system.cpu.committedInstType_0::SimdShaSigma2            0      0.00%     39.87% # Class of committed instruction (Count)
system.cpu.committedInstType_0::SimdShaSigma3            0      0.00%     39.87% # Class of committed instruction (Count)
system.cpu.committedInstType_0::SimdPredAlu            0      0.00%     39.87% # Class of committed instruction (Count)
system.cpu.committedInstType_0::MemRead      47675348     47.35%     87.23% # Class of committed instruction (Count)
system.cpu.committedInstType_0::MemWrite     12859955     12.77%    100.00% # Class of committed instruction (Count)
system.cpu.committedInstType_0::FloatMemRead            0      0.00%    100.00% # Class of committed instruction (Count)
system.cpu.committedInstType_0::FloatMemWrite            0      0.00%    100.00% # Class of committed instruction (Count)
system.cpu.committedInstType_0::IprAccess            0      0.00%    100.00% # Class of committed instruction (Count)
system.cpu.committedInstType_0::InstPrefetch            0      0.00%    100.00% # Class of committed instruction (Count)
system.cpu.committedInstType_0::total       100677219                       # Class of committed instruction (Count)
system.cpu.branchPred.lookups                 5724980                       # Number of BP lookups (Count)
system.cpu.branchPred.condPredicted           4586438                       # Number of conditional branches predicted (Count)
system.cpu.branchPred.condIncorrect            185577                       # Number of conditional branches incorrect (Count)
system.cpu.branchPred.BTBLookups              2947541                       # Number of BTB lookups (Count)
system.cpu.branchPred.BTBHits                 2944170                       # Number of BTB hits (Count)
system.cpu.branchPred.BTBHitRatio            0.998856                       # BTB Hit Ratio (Ratio)
system.cpu.branchPred.RASUsed                  138548                       # Number of times the RAS was used to get a target. (Count)
system.cpu.branchPred.RASIncorrect                103                       # Number of incorrect RAS predictions. (Count)
system.cpu.branchPred.indirectLookups             315                       # Number of indirect predictor lookups. (Count)
system.cpu.branchPred.indirectHits                166                       # Number of indirect target hits. (Count)
system.cpu.branchPred.indirectMisses              149                       # Number of indirect misses. (Count)
system.cpu.branchPred.indirectMispredicted          124                       # Number of mispredicted indirect branches. (Count)
system.cpu.dcache.demandHits::cpu.data       57137461                       # number of demand (read+write) hits (Count)
system.cpu.dcache.demandHits::total          57137461                       # number of demand (read+write) hits (Count)
system.cpu.dcache.overallHits::cpu.data      57137461                       # number of overall hits (Count)
system.cpu.dcache.overallHits::total         57137461                       # number of overall hits (Count)
system.cpu.dcache.demandMisses::cpu.data      1392240                       # number of demand (read+write) misses (Count)
system.cpu.dcache.demandMisses::total         1392240                       # number of demand (read+write) misses (Count)
system.cpu.dcache.overallMisses::cpu.data      1392240                       # number of overall misses (Count)
system.cpu.dcache.overallMisses::total        1392240                       # number of overall misses (Count)
system.cpu.dcache.demandMissLatency::cpu.data 108486673500                       # number of demand (read+write) miss ticks (Tick)
system.cpu.dcache.demandMissLatency::total 108486673500                       # number of demand (read+write) miss ticks (Tick)
system.cpu.dcache.overallMissLatency::cpu.data 108486673500                       # number of overall miss ticks (Tick)
system.cpu.dcache.overallMissLatency::total 108486673500                       # number of overall miss ticks (Tick)
system.cpu.dcache.demandAccesses::cpu.data     58529701                       # number of demand (read+write) accesses (Count)
system.cpu.dcache.demandAccesses::total      58529701                       # number of demand (read+write) accesses (Count)
system.cpu.dcache.overallAccesses::cpu.data     58529701                       # number of overall (read+write) accesses (Count)
system.cpu.dcache.overallAccesses::total     58529701                       # number of overall (read+write) accesses (Count)
system.cpu.dcache.demandMissRate::cpu.data     0.023787                       # miss rate for demand accesses (Ratio)
system.cpu.dcache.demandMissRate::total      0.023787                       # miss rate for demand accesses (Ratio)
system.cpu.dcache.overallMissRate::cpu.data     0.023787                       # miss rate for overall accesses (Ratio)
system.cpu.dcache.overallMissRate::total     0.023787                       # miss rate for overall accesses (Ratio)
system.cpu.dcache.demandAvgMissLatency::cpu.data 77922.393768                       # average overall miss latency in ticks ((Tick/Count))
system.cpu.dcache.demandAvgMissLatency::total 77922.393768                       # average overall miss latency in ticks ((Tick/Count))
system.cpu.dcache.overallAvgMissLatency::cpu.data 77922.393768                       # average overall miss latency ((Tick/Count))
system.cpu.dcache.overallAvgMissLatency::total 77922.393768                       # average overall miss latency ((Tick/Count))
system.cpu.dcache.blockedCycles::no_mshrs            0                       # number of cycles access was blocked (Cycle)
system.cpu.dcache.blockedCycles::no_targets            0                       # number of cycles access was blocked (Cycle)
system.cpu.dcache.blockedCauses::no_mshrs            0                       # number of times access was blocked (Count)
system.cpu.dcache.blockedCauses::no_targets            0                       # number of times access was blocked (Count)
system.cpu.dcache.avgBlocked::no_mshrs            nan                       # average number of cycles each access was blocked ((Cycle/Count))
system.cpu.dcache.avgBlocked::no_targets          nan                       # average number of cycles each access was blocked ((Cycle/Count))
system.cpu.dcache.writebacks::writebacks      1184918                       # number of writebacks (Count)
system.cpu.dcache.writebacks::total           1184918                       # number of writebacks (Count)
system.cpu.dcache.demandMshrHits::cpu.data        36977                       # number of demand (read+write) MSHR hits (Count)
system.cpu.dcache.demandMshrHits::total         36977                       # number of demand (read+write) MSHR hits (Count)
system.cpu.dcache.overallMshrHits::cpu.data        36977                       # number of overall MSHR hits (Count)
system.cpu.dcache.overallMshrHits::total        36977                       # number of overall MSHR hits (Count)
system.cpu.dcache.demandMshrMisses::cpu.data      1355263                       # number of demand (read+write) MSHR misses (Count)
system.cpu.dcache.demandMshrMisses::total      1355263                       # number of demand (read+write) MSHR misses (Count)
system.cpu.dcache.overallMshrMisses::cpu.data      1355263                       # number of overall MSHR misses (Count)
system.cpu.dcache.overallMshrMisses::total      1355263                       # number of overall MSHR misses (Count)
system.cpu.dcache.demandMshrMissLatency::cpu.data 104438172500                       # number of demand (read+write) MSHR miss ticks (Tick)
system.cpu.dcache.demandMshrMissLatency::total 104438172500                       # number of demand (read+write) MSHR miss ticks (Tick)
system.cpu.dcache.overallMshrMissLatency::cpu.data 104438172500                       # number of overall MSHR miss ticks (Tick)
system.cpu.dcache.overallMshrMissLatency::total 104438172500                       # number of overall MSHR miss ticks (Tick)
system.cpu.dcache.demandMshrMissRate::cpu.data     0.023155                       # mshr miss ratio for demand accesses (Ratio)
system.cpu.dcache.demandMshrMissRate::total     0.023155                       # mshr miss ratio for demand accesses (Ratio)
system.cpu.dcache.overallMshrMissRate::cpu.data     0.023155                       # mshr miss ratio for overall accesses (Ratio)
system.cpu.dcache.overallMshrMissRate::total     0.023155                       # mshr miss ratio for overall accesses (Ratio)
system.cpu.dcache.demandAvgMshrMissLatency::cpu.data 77061.184803                       # average overall mshr miss latency ((Tick/Count))
system.cpu.dcache.demandAvgMshrMissLatency::total 77061.184803                       # average overall mshr miss latency ((Tick/Count))
system.cpu.dcache.overallAvgMshrMissLatency::cpu.data 77061.184803                       # average overall mshr miss latency ((Tick/Count))
system.cpu.dcache.overallAvgMshrMissLatency::total 77061.184803                       # average overall mshr miss latency ((Tick/Count))
system.cpu.dcache.replacements                1355200                       # number of replacements (Count)
system.cpu.dcache.LoadLockedReq.hits::cpu.data            3                       # number of LoadLockedReq hits (Count)
system.cpu.dcache.LoadLockedReq.hits::total            3                       # number of LoadLockedReq hits (Count)
system.cpu.dcache.LoadLockedReq.misses::cpu.data            1                       # number of LoadLockedReq misses (Count)
system.cpu.dcache.LoadLockedReq.misses::total            1                       # number of LoadLockedReq misses (Count)
system.cpu.dcache.LoadLockedReq.missLatency::cpu.data       105000                       # number of LoadLockedReq miss ticks (Tick)
system.cpu.dcache.LoadLockedReq.missLatency::total       105000                       # number of LoadLockedReq miss ticks (Tick)
system.cpu.dcache.LoadLockedReq.accesses::cpu.data            4                       # number of LoadLockedReq accesses(hits+misses) (Count)
system.cpu.dcache.LoadLockedReq.accesses::total            4                       # number of LoadLockedReq accesses(hits+misses) (Count)
system.cpu.dcache.LoadLockedReq.missRate::cpu.data     0.250000                       # miss rate for LoadLockedReq accesses (Ratio)
system.cpu.dcache.LoadLockedReq.missRate::total     0.250000                       # miss rate for LoadLockedReq accesses (Ratio)
system.cpu.dcache.LoadLockedReq.avgMissLatency::cpu.data       105000                       # average LoadLockedReq miss latency ((Tick/Count))
system.cpu.dcache.LoadLockedReq.avgMissLatency::total       105000                       # average LoadLockedReq miss latency ((Tick/Count))
system.cpu.dcache.LoadLockedReq.mshrMisses::cpu.data            1                       # number of LoadLockedReq MSHR misses (Count)
system.cpu.dcache.LoadLockedReq.mshrMisses::total            1                       # number of LoadLockedReq MSHR misses (Count)
system.cpu.dcache.LoadLockedReq.mshrMissLatency::cpu.data       104000                       # number of LoadLockedReq MSHR miss ticks (Tick)
system.cpu.dcache.LoadLockedReq.mshrMissLatency::total       104000                       # number of LoadLockedReq MSHR miss ticks (Tick)
system.cpu.dcache.LoadLockedReq.mshrMissRate::cpu.data     0.250000                       # mshr miss rate for LoadLockedReq accesses (Ratio)
system.cpu.dcache.LoadLockedReq.mshrMissRate::total     0.250000                       # mshr miss rate for LoadLockedReq accesses (Ratio)
system.cpu.dcache.LoadLockedReq.avgMshrMissLatency::cpu.data       104000                       # average LoadLockedReq mshr miss latency ((Tick/Count))
system.cpu.dcache.LoadLockedReq.avgMshrMissLatency::total       104000                       # average LoadLockedReq mshr miss latency ((Tick/Count))
system.cpu.dcache.ReadReq.hits::cpu.data     44828270                       # number of ReadReq hits (Count)
system.cpu.dcache.ReadReq.hits::total        44828270                       # number of ReadReq hits (Count)
system.cpu.dcache.ReadReq.misses::cpu.data       850124                       # number of ReadReq misses (Count)
system.cpu.dcache.ReadReq.misses::total        850124                       # number of ReadReq misses (Count)
system.cpu.dcache.ReadReq.missLatency::cpu.data  62101773000                       # number of ReadReq miss ticks (Tick)
system.cpu.dcache.ReadReq.missLatency::total  62101773000                       # number of ReadReq miss ticks (Tick)
system.cpu.dcache.ReadReq.accesses::cpu.data     45678394                       # number of ReadReq accesses(hits+misses) (Count)
system.cpu.dcache.ReadReq.accesses::total     45678394                       # number of ReadReq accesses(hits+misses) (Count)
system.cpu.dcache.ReadReq.missRate::cpu.data     0.018611                       # miss rate for ReadReq accesses (Ratio)
system.cpu.dcache.ReadReq.missRate::total     0.018611                       # miss rate for ReadReq accesses (Ratio)
system.cpu.dcache.ReadReq.avgMissLatency::cpu.data 73050.252669                       # average ReadReq miss latency ((Tick/Count))
system.cpu.dcache.ReadReq.avgMissLatency::total 73050.252669                       # average ReadReq miss latency ((Tick/Count))
system.cpu.dcache.ReadReq.mshrHits::cpu.data          309                       # number of ReadReq MSHR hits (Count)
system.cpu.dcache.ReadReq.mshrHits::total          309                       # number of ReadReq MSHR hits (Count)
system.cpu.dcache.ReadReq.mshrMisses::cpu.data       849815                       # number of ReadReq MSHR misses (Count)
system.cpu.dcache.ReadReq.mshrMisses::total       849815                       # number of ReadReq MSHR misses (Count)
system.cpu.dcache.ReadReq.mshrMissLatency::cpu.data  61247101500                       # number of ReadReq MSHR miss ticks (Tick)
system.cpu.dcache.ReadReq.mshrMissLatency::total  61247101500                       # number of ReadReq MSHR miss ticks (Tick)
system.cpu.dcache.ReadReq.mshrMissRate::cpu.data     0.018604                       # mshr miss rate for ReadReq accesses (Ratio)
system.cpu.dcache.ReadReq.mshrMissRate::total     0.018604                       # mshr miss rate for ReadReq accesses (Ratio)
system.cpu.dcache.ReadReq.avgMshrMissLatency::cpu.data 72071.099592                       # average ReadReq mshr miss latency ((Tick/Count))
system.cpu.dcache.ReadReq.avgMshrMissLatency::total 72071.099592                       # average ReadReq mshr miss latency ((Tick/Count))
system.cpu.dcache.StoreCondReq.hits::cpu.data            4                       # number of StoreCondReq hits (Count)
system.cpu.dcache.StoreCondReq.hits::total            4                       # number of StoreCondReq hits (Count)
system.cpu.dcache.StoreCondReq.accesses::cpu.data            4                       # number of StoreCondReq accesses(hits+misses) (Count)
system.cpu.dcache.StoreCondReq.accesses::total            4                       # number of StoreCondReq accesses(hits+misses) (Count)
system.cpu.dcache.SwapReq.hits::cpu.data           34                       # number of SwapReq hits (Count)
system.cpu.dcache.SwapReq.hits::total              34                       # number of SwapReq hits (Count)
system.cpu.dcache.SwapReq.accesses::cpu.data           34                       # number of SwapReq accesses(hits+misses) (Count)
system.cpu.dcache.SwapReq.accesses::total           34                       # number of SwapReq accesses(hits+misses) (Count)
system.cpu.dcache.WriteReq.hits::cpu.data     12309191                       # number of WriteReq hits (Count)
system.cpu.dcache.WriteReq.hits::total       12309191                       # number of WriteReq hits (Count)
system.cpu.dcache.WriteReq.misses::cpu.data       542116                       # number of WriteReq misses (Count)
system.cpu.dcache.WriteReq.misses::total       542116                       # number of WriteReq misses (Count)
system.cpu.dcache.WriteReq.missLatency::cpu.data  46384900500                       # number of WriteReq miss ticks (Tick)
system.cpu.dcache.WriteReq.missLatency::total  46384900500                       # number of WriteReq miss ticks (Tick)
system.cpu.dcache.WriteReq.accesses::cpu.data     12851307                       # number of WriteReq accesses(hits+misses) (Count)
system.cpu.dcache.WriteReq.accesses::total     12851307                       # number of WriteReq accesses(hits+misses) (Count)
system.cpu.dcache.WriteReq.missRate::cpu.data     0.042184                       # miss rate for WriteReq accesses (Ratio)
system.cpu.dcache.WriteReq.missRate::total     0.042184                       # miss rate for WriteReq accesses (Ratio)
system.cpu.dcache.WriteReq.avgMissLatency::cpu.data 85562.684924                       # average WriteReq miss latency ((Tick/Count))
system.cpu.dcache.WriteReq.avgMissLatency::total 85562.684924                       # average WriteReq miss latency ((Tick/Count))
system.cpu.dcache.WriteReq.mshrHits::cpu.data        36668                       # number of WriteReq MSHR hits (Count)
system.cpu.dcache.WriteReq.mshrHits::total        36668                       # number of WriteReq MSHR hits (Count)
system.cpu.dcache.WriteReq.mshrMisses::cpu.data       505448                       # number of WriteReq MSHR misses (Count)
system.cpu.dcache.WriteReq.mshrMisses::total       505448                       # number of WriteReq MSHR misses (Count)
system.cpu.dcache.WriteReq.mshrMissLatency::cpu.data  43191071000                       # number of WriteReq MSHR miss ticks (Tick)
system.cpu.dcache.WriteReq.mshrMissLatency::total  43191071000                       # number of WriteReq MSHR miss ticks (Tick)
system.cpu.dcache.WriteReq.mshrMissRate::cpu.data     0.039330                       # mshr miss rate for WriteReq accesses (Ratio)
system.cpu.dcache.WriteReq.mshrMissRate::total     0.039330                       # mshr miss rate for WriteReq accesses (Ratio)
system.cpu.dcache.WriteReq.avgMshrMissLatency::cpu.data 85451.067172                       # average WriteReq mshr miss latency ((Tick/Count))
system.cpu.dcache.WriteReq.avgMshrMissLatency::total 85451.067172                       # average WriteReq mshr miss latency ((Tick/Count))
system.cpu.dcache.power_state.pwrStateResidencyTicks::UNDEFINED 143694904500                       # Cumulative time (in ticks) in various power states (Tick)
system.cpu.dcache.tags.tagsInUse            63.996865                       # Average ticks per tags in use ((Tick/Count))
system.cpu.dcache.tags.totalRefs             58492766                       # Total number of references to valid blocks. (Count)
system.cpu.dcache.tags.sampledRefs            1355264                       # Sample count of references to valid blocks. (Count)
system.cpu.dcache.tags.avgRefs              43.159684                       # Average number of references to valid blocks. ((Count/Count))
system.cpu.dcache.tags.warmupTick              187500                       # The tick when the warmup percentage was hit. (Tick)
system.cpu.dcache.tags.occupancies::cpu.data    63.996865                       # Average occupied blocks per tick, per requestor ((Count/Tick))
system.cpu.dcache.tags.avgOccs::cpu.data     0.999951                       # Average percentage of cache occupancy ((Ratio/Tick))
system.cpu.dcache.tags.avgOccs::total        0.999951                       # Average percentage of cache occupancy ((Ratio/Tick))
system.cpu.dcache.tags.occupanciesTaskId::1024           64                       # Occupied blocks per task id (Count)
system.cpu.dcache.tags.ageTaskId_1024::0           13                       # Occupied blocks per task id, per block age (Count)
system.cpu.dcache.tags.ageTaskId_1024::1           51                       # Occupied blocks per task id, per block age (Count)
system.cpu.dcache.tags.ratioOccsTaskId::1024            1                       # Ratio of occupied blocks and all blocks, per task id (Ratio)
system.cpu.dcache.tags.tagAccesses          235474236                       # Number of tag accesses (Count)
system.cpu.dcache.tags.dataAccesses         235474236                       # Number of data accesses (Count)
system.cpu.dcache.tags.power_state.pwrStateResidencyTicks::UNDEFINED 143694904500                       # Cumulative time (in ticks) in various power states (Tick)
system.cpu.fetch2.intInstructions            35794118                       # Number of integer instructions successfully decoded (Count)
system.cpu.fetch2.fpInstructions                    0                       # Number of floating point instructions successfully decoded (Count)
system.cpu.fetch2.vecInstructions                 115                       # Number of SIMD instructions successfully decoded (Count)
system.cpu.fetch2.loadInstructions           49225258                       # Number of memory load instructions successfully decoded (Count)
system.cpu.fetch2.storeInstructions          12865574                       # Number of memory store instructions successfully decoded (Count)
system.cpu.fetch2.amoInstructions                  43                       # Number of memory atomic instructions successfully decoded (Count)
system.cpu.icache.demandHits::cpu.inst       11531863                       # number of demand (read+write) hits (Count)
system.cpu.icache.demandHits::total          11531863                       # number of demand (read+write) hits (Count)
system.cpu.icache.overallHits::cpu.inst      11531863                       # number of overall hits (Count)
system.cpu.icache.overallHits::total         11531863                       # number of overall hits (Count)
system.cpu.icache.demandMisses::cpu.inst          543                       # number of demand (read+write) misses (Count)
system.cpu.icache.demandMisses::total             543                       # number of demand (read+write) misses (Count)
system.cpu.icache.overallMisses::cpu.inst          543                       # number of overall misses (Count)
system.cpu.icache.overallMisses::total            543                       # number of overall misses (Count)
system.cpu.icache.demandMissLatency::cpu.inst     46255500                       # number of demand (read+write) miss ticks (Tick)
system.cpu.icache.demandMissLatency::total     46255500                       # number of demand (read+write) miss ticks (Tick)
system.cpu.icache.overallMissLatency::cpu.inst     46255500                       # number of overall miss ticks (Tick)
system.cpu.icache.overallMissLatency::total     46255500                       # number of overall miss ticks (Tick)
system.cpu.icache.demandAccesses::cpu.inst     11532406                       # number of demand (read+write) accesses (Count)
system.cpu.icache.demandAccesses::total      11532406                       # number of demand (read+write) accesses (Count)
system.cpu.icache.overallAccesses::cpu.inst     11532406                       # number of overall (read+write) accesses (Count)
system.cpu.icache.overallAccesses::total     11532406                       # number of overall (read+write) accesses (Count)
system.cpu.icache.demandMissRate::cpu.inst     0.000047                       # miss rate for demand accesses (Ratio)
system.cpu.icache.demandMissRate::total      0.000047                       # miss rate for demand accesses (Ratio)
system.cpu.icache.overallMissRate::cpu.inst     0.000047                       # miss rate for overall accesses (Ratio)
system.cpu.icache.overallMissRate::total     0.000047                       # miss rate for overall accesses (Ratio)
system.cpu.icache.demandAvgMissLatency::cpu.inst 85185.082873                       # average overall miss latency in ticks ((Tick/Count))
system.cpu.icache.demandAvgMissLatency::total 85185.082873                       # average overall miss latency in ticks ((Tick/Count))
system.cpu.icache.overallAvgMissLatency::cpu.inst 85185.082873                       # average overall miss latency ((Tick/Count))
system.cpu.icache.overallAvgMissLatency::total 85185.082873                       # average overall miss latency ((Tick/Count))
system.cpu.icache.blockedCycles::no_mshrs            0                       # number of cycles access was blocked (Cycle)
system.cpu.icache.blockedCycles::no_targets            0                       # number of cycles access was blocked (Cycle)
system.cpu.icache.blockedCauses::no_mshrs            0                       # number of times access was blocked (Count)
system.cpu.icache.blockedCauses::no_targets            0                       # number of times access was blocked (Count)
system.cpu.icache.avgBlocked::no_mshrs            nan                       # average number of cycles each access was blocked ((Cycle/Count))
system.cpu.icache.avgBlocked::no_targets          nan                       # average number of cycles each access was blocked ((Cycle/Count))
system.cpu.icache.writebacks::writebacks          142                       # number of writebacks (Count)
system.cpu.icache.writebacks::total               142                       # number of writebacks (Count)
system.cpu.icache.demandMshrMisses::cpu.inst          543                       # number of demand (read+write) MSHR misses (Count)
system.cpu.icache.demandMshrMisses::total          543                       # number of demand (read+write) MSHR misses (Count)
system.cpu.icache.overallMshrMisses::cpu.inst          543                       # number of overall MSHR misses (Count)
system.cpu.icache.overallMshrMisses::total          543                       # number of overall MSHR misses (Count)
system.cpu.icache.demandMshrMissLatency::cpu.inst     45712500                       # number of demand (read+write) MSHR miss ticks (Tick)
system.cpu.icache.demandMshrMissLatency::total     45712500                       # number of demand (read+write) MSHR miss ticks (Tick)
system.cpu.icache.overallMshrMissLatency::cpu.inst     45712500                       # number of overall MSHR miss ticks (Tick)
system.cpu.icache.overallMshrMissLatency::total     45712500                       # number of overall MSHR miss ticks (Tick)
system.cpu.icache.demandMshrMissRate::cpu.inst     0.000047                       # mshr miss ratio for demand accesses (Ratio)
system.cpu.icache.demandMshrMissRate::total     0.000047                       # mshr miss ratio for demand accesses (Ratio)
system.cpu.icache.overallMshrMissRate::cpu.inst     0.000047                       # mshr miss ratio for overall accesses (Ratio)
system.cpu.icache.overallMshrMissRate::total     0.000047                       # mshr miss ratio for overall accesses (Ratio)
system.cpu.icache.demandAvgMshrMissLatency::cpu.inst 84185.082873                       # average overall mshr miss latency ((Tick/Count))
system.cpu.icache.demandAvgMshrMissLatency::total 84185.082873                       # average overall mshr miss latency ((Tick/Count))
system.cpu.icache.overallAvgMshrMissLatency::cpu.inst 84185.082873                       # average overall mshr miss latency ((Tick/Count))
system.cpu.icache.overallAvgMshrMissLatency::total 84185.082873                       # average overall mshr miss latency ((Tick/Count))
system.cpu.icache.replacements                    142                       # number of replacements (Count)
system.cpu.icache.ReadReq.hits::cpu.inst     11531863                       # number of ReadReq hits (Count)
system.cpu.icache.ReadReq.hits::total        11531863                       # number of ReadReq hits (Count)
system.cpu.icache.ReadReq.misses::cpu.inst          543                       # number of ReadReq misses (Count)
system.cpu.icache.ReadReq.misses::total           543                       # number of ReadReq misses (Count)
system.cpu.icache.ReadReq.missLatency::cpu.inst     46255500                       # number of ReadReq miss ticks (Tick)
system.cpu.icache.ReadReq.missLatency::total     46255500                       # number of ReadReq miss ticks (Tick)
system.cpu.icache.ReadReq.accesses::cpu.inst     11532406                       # number of ReadReq accesses(hits+misses) (Count)
system.cpu.icache.ReadReq.accesses::total     11532406                       # number of ReadReq accesses(hits+misses) (Count)
system.cpu.icache.ReadReq.missRate::cpu.inst     0.000047                       # miss rate for ReadReq accesses (Ratio)
system.cpu.icache.ReadReq.missRate::total     0.000047                       # miss rate for ReadReq accesses (Ratio)
system.cpu.icache.ReadReq.avgMissLatency::cpu.inst 85185.082873                       # average ReadReq miss latency ((Tick/Count))
system.cpu.icache.ReadReq.avgMissLatency::total 85185.082873                       # average ReadReq miss latency ((Tick/Count))
system.cpu.icache.ReadReq.mshrMisses::cpu.inst          543                       # number of ReadReq MSHR misses (Count)
system.cpu.icache.ReadReq.mshrMisses::total          543                       # number of ReadReq MSHR misses (Count)
system.cpu.icache.ReadReq.mshrMissLatency::cpu.inst     45712500                       # number of ReadReq MSHR miss ticks (Tick)
system.cpu.icache.ReadReq.mshrMissLatency::total     45712500                       # number of ReadReq MSHR miss ticks (Tick)
system.cpu.icache.ReadReq.mshrMissRate::cpu.inst     0.000047                       # mshr miss rate for ReadReq accesses (Ratio)
system.cpu.icache.ReadReq.mshrMissRate::total     0.000047                       # mshr miss rate for ReadReq accesses (Ratio)
system.cpu.icache.ReadReq.avgMshrMissLatency::cpu.inst 84185.082873                       # average ReadReq mshr miss latency ((Tick/Count))
system.cpu.icache.ReadReq.avgMshrMissLatency::total 84185.082873                       # average ReadReq mshr miss latency ((Tick/Count))
system.cpu.icache.power_state.pwrStateResidencyTicks::UNDEFINED 143694904500                       # Cumulative time (in ticks) in various power states (Tick)
system.cpu.icache.tags.tagsInUse           362.195669                       # Average ticks per tags in use ((Tick/Count))
system.cpu.icache.tags.totalRefs             11532406                       # Total number of references to valid blocks. (Count)
system.cpu.icache.tags.sampledRefs                543                       # Sample count of references to valid blocks. (Count)
system.cpu.icache.tags.avgRefs           21238.316759                       # Average number of references to valid blocks. ((Count/Count))
system.cpu.icache.tags.warmupTick               92500                       # The tick when the warmup percentage was hit. (Tick)
system.cpu.icache.tags.occupancies::cpu.inst   362.195669                       # Average occupied blocks per tick, per requestor ((Count/Tick))
system.cpu.icache.tags.avgOccs::cpu.inst     0.707413                       # Average percentage of cache occupancy ((Ratio/Tick))
system.cpu.icache.tags.avgOccs::total        0.707413                       # Average percentage of cache occupancy ((Ratio/Tick))
system.cpu.icache.tags.occupanciesTaskId::1024          401                       # Occupied blocks per task id (Count)
system.cpu.icache.tags.ageTaskId_1024::4          401                       # Occupied blocks per task id, per block age (Count)
system.cpu.icache.tags.ratioOccsTaskId::1024     0.783203                       # Ratio of occupied blocks and all blocks, per task id (Ratio)
system.cpu.icache.tags.tagAccesses           23065355                       # Number of tag accesses (Count)
system.cpu.icache.tags.dataAccesses          23065355                       # Number of data accesses (Count)
system.cpu.icache.tags.power_state.pwrStateResidencyTicks::UNDEFINED 143694904500                       # Cumulative time (in ticks) in various power states (Tick)
system.cpu.mmu.alignFaults                          0                       # Number of MMU faults due to alignment restrictions (Count)
system.cpu.mmu.prefetchFaults                       0                       # Number of MMU faults due to prefetch (Count)
system.cpu.mmu.domainFaults                         0                       # Number of MMU faults due to domain restrictions (Count)
system.cpu.mmu.permsFaults                          0                       # Number of MMU faults due to permissions restrictions (Count)
system.cpu.mmu.dtb.readHits                         0                       # Read hits (Count)
system.cpu.mmu.dtb.readMisses                       0                       # Read misses (Count)
system.cpu.mmu.dtb.writeHits                        0                       # Write hits (Count)
system.cpu.mmu.dtb.writeMisses                      0                       # Write misses (Count)
system.cpu.mmu.dtb.inserts                          0                       # Number of times an entry is inserted into the TLB (Count)
system.cpu.mmu.dtb.flushTlb                         0                       # Number of times complete TLB was flushed (Count)
system.cpu.mmu.dtb.flushTlbMva                      0                       # Number of times TLB was flushed by MVA (Count)
system.cpu.mmu.dtb.flushTlbMvaAsid                  0                       # Number of times TLB was flushed by MVA & ASID (Count)
system.cpu.mmu.dtb.flushTlbAsid                     0                       # Number of times TLB was flushed by ASID (Count)
system.cpu.mmu.dtb.flushedEntries                   0                       # Number of entries that have been flushed from TLB (Count)
system.cpu.mmu.dtb.readAccesses                     0                       # Read accesses (Count)
system.cpu.mmu.dtb.writeAccesses                    0                       # Write accesses (Count)
system.cpu.mmu.dtb.hits                             0                       # Total TLB (inst and data) hits (Count)
system.cpu.mmu.dtb.misses                           0                       # Total TLB (inst and data) misses (Count)
system.cpu.mmu.dtb.accesses                         0                       # Total TLB (inst and data) accesses (Count)
system.cpu.mmu.dtb_walker.walks                     0                       # Table walker walks requested (Count)
system.cpu.mmu.dtb_walker.requestOrigin_Requested::Data            0                       # Table walker requests started/completed, data/inst (Count)
system.cpu.mmu.dtb_walker.requestOrigin_Requested::Inst            0                       # Table walker requests started/completed, data/inst (Count)
system.cpu.mmu.dtb_walker.requestOrigin_Requested::total            0                       # Table walker requests started/completed, data/inst (Count)
system.cpu.mmu.dtb_walker.requestOrigin_Completed::Data            0                       # Table walker requests started/completed, data/inst (Count)
system.cpu.mmu.dtb_walker.requestOrigin_Completed::Inst            0                       # Table walker requests started/completed, data/inst (Count)
system.cpu.mmu.dtb_walker.requestOrigin_Completed::total            0                       # Table walker requests started/completed, data/inst (Count)
system.cpu.mmu.dtb_walker.requestOrigin::total            0                       # Table walker requests started/completed, data/inst (Count)
system.cpu.mmu.dtb_walker.power_state.pwrStateResidencyTicks::UNDEFINED 143694904500                       # Cumulative time (in ticks) in various power states (Tick)
system.cpu.mmu.itb.instHits                         0                       # Inst hits (Count)
system.cpu.mmu.itb.instMisses                       0                       # Inst misses (Count)
system.cpu.mmu.itb.inserts                          0                       # Number of times an entry is inserted into the TLB (Count)
system.cpu.mmu.itb.flushTlb                         0                       # Number of times complete TLB was flushed (Count)
system.cpu.mmu.itb.flushTlbMva                      0                       # Number of times TLB was flushed by MVA (Count)
system.cpu.mmu.itb.flushTlbMvaAsid                  0                       # Number of times TLB was flushed by MVA & ASID (Count)
system.cpu.mmu.itb.flushTlbAsid                     0                       # Number of times TLB was flushed by ASID (Count)
system.cpu.mmu.itb.flushedEntries                   0                       # Number of entries that have been flushed from TLB (Count)
system.cpu.mmu.itb.instAccesses                     0                       # Inst accesses (Count)
system.cpu.mmu.itb.hits                             0                       # Total TLB (inst and data) hits (Count)
system.cpu.mmu.itb.misses                           0                       # Total TLB (inst and data) misses (Count)
system.cpu.mmu.itb.accesses                         0                       # Total TLB (inst and data) accesses (Count)
system.cpu.mmu.itb_walker.walks                     0                       # Table walker walks requested (Count)
system.cpu.mmu.itb_walker.requestOrigin_Requested::Data            0                       # Table walker requests started/completed, data/inst (Count)
system.cpu.mmu.itb_walker.requestOrigin_Requested::Inst            0                       # Table walker requests started/completed, data/inst (Count)
system.cpu.mmu.itb_walker.requestOrigin_Requested::total            0                       # Table walker requests started/completed, data/inst (Count)
system.cpu.mmu.itb_walker.requestOrigin_Completed::Data            0                       # Table walker requests started/completed, data/inst (Count)
system.cpu.mmu.itb_walker.requestOrigin_Completed::Inst            0                       # Table walker requests started/completed, data/inst (Count)
system.cpu.mmu.itb_walker.requestOrigin_Completed::total            0                       # Table walker requests started/completed, data/inst (Count)
system.cpu.mmu.itb_walker.requestOrigin::total            0                       # Table walker requests started/completed, data/inst (Count)
system.cpu.mmu.itb_walker.power_state.pwrStateResidencyTicks::UNDEFINED 143694904500                       # Cumulative time (in ticks) in various power states (Tick)
system.cpu.mmu.l2_shared.instHits                   0                       # Inst hits (Count)
system.cpu.mmu.l2_shared.instMisses                 0                       # Inst misses (Count)
system.cpu.mmu.l2_shared.inserts                    0                       # Number of times an entry is inserted into the TLB (Count)
system.cpu.mmu.l2_shared.flushTlb                   0                       # Number of times complete TLB was flushed (Count)
system.cpu.mmu.l2_shared.flushTlbMva                0                       # Number of times TLB was flushed by MVA (Count)
system.cpu.mmu.l2_shared.flushTlbMvaAsid            0                       # Number of times TLB was flushed by MVA & ASID (Count)
system.cpu.mmu.l2_shared.flushTlbAsid               0                       # Number of times TLB was flushed by ASID (Count)
system.cpu.mmu.l2_shared.flushedEntries             0                       # Number of entries that have been flushed from TLB (Count)
system.cpu.mmu.l2_shared.instAccesses               0                       # Inst accesses (Count)
system.cpu.mmu.l2_shared.hits                       0                       # Total TLB (inst and data) hits (Count)
system.cpu.mmu.l2_shared.misses                     0                       # Total TLB (inst and data) misses (Count)
system.cpu.mmu.l2_shared.accesses                   0                       # Total TLB (inst and data) accesses (Count)
system.cpu.mmu.stage2_dtb.readHits                  0                       # Read hits (Count)
system.cpu.mmu.stage2_dtb.readMisses                0                       # Read misses (Count)
system.cpu.mmu.stage2_dtb.writeHits                 0                       # Write hits (Count)
system.cpu.mmu.stage2_dtb.writeMisses               0                       # Write misses (Count)
system.cpu.mmu.stage2_dtb.inserts                   0                       # Number of times an entry is inserted into the TLB (Count)
system.cpu.mmu.stage2_dtb.flushTlb                  0                       # Number of times complete TLB was flushed (Count)
system.cpu.mmu.stage2_dtb.flushTlbMva               0                       # Number of times TLB was flushed by MVA (Count)
system.cpu.mmu.stage2_dtb.flushTlbMvaAsid            0                       # Number of times TLB was flushed by MVA & ASID (Count)
system.cpu.mmu.stage2_dtb.flushTlbAsid              0                       # Number of times TLB was flushed by ASID (Count)
system.cpu.mmu.stage2_dtb.flushedEntries            0                       # Number of entries that have been flushed from TLB (Count)
system.cpu.mmu.stage2_dtb.readAccesses              0                       # Read accesses (Count)
system.cpu.mmu.stage2_dtb.writeAccesses             0                       # Write accesses (Count)
system.cpu.mmu.stage2_dtb.hits                      0                       # Total TLB (inst and data) hits (Count)
system.cpu.mmu.stage2_dtb.misses                    0                       # Total TLB (inst and data) misses (Count)
system.cpu.mmu.stage2_dtb.accesses                  0                       # Total TLB (inst and data) accesses (Count)
system.cpu.mmu.stage2_dtb_walker.walks              0                       # Table walker walks requested (Count)
system.cpu.mmu.stage2_dtb_walker.requestOrigin_Requested::Data            0                       # Table walker requests started/completed, data/inst (Count)
system.cpu.mmu.stage2_dtb_walker.requestOrigin_Requested::Inst            0                       # Table walker requests started/completed, data/inst (Count)
system.cpu.mmu.stage2_dtb_walker.requestOrigin_Requested::total            0                       # Table walker requests started/completed, data/inst (Count)
system.cpu.mmu.stage2_dtb_walker.requestOrigin_Completed::Data            0                       # Table walker requests started/completed, data/inst (Count)
system.cpu.mmu.stage2_dtb_walker.requestOrigin_Completed::Inst            0                       # Table walker requests started/completed, data/inst (Count)
system.cpu.mmu.stage2_dtb_walker.requestOrigin_Completed::total            0                       # Table walker requests started/completed, data/inst (Count)
system.cpu.mmu.stage2_dtb_walker.requestOrigin::total            0                       # Table walker requests started/completed, data/inst (Count)
system.cpu.mmu.stage2_dtb_walker.power_state.pwrStateResidencyTicks::UNDEFINED 143694904500                       # Cumulative time (in ticks) in various power states (Tick)
system.cpu.mmu.stage2_itb.instHits                  0                       # Inst hits (Count)
system.cpu.mmu.stage2_itb.instMisses                0                       # Inst misses (Count)
system.cpu.mmu.stage2_itb.inserts                   0                       # Number of times an entry is inserted into the TLB (Count)
system.cpu.mmu.stage2_itb.flushTlb                  0                       # Number of times complete TLB was flushed (Count)
system.cpu.mmu.stage2_itb.flushTlbMva               0                       # Number of times TLB was flushed by MVA (Count)
system.cpu.mmu.stage2_itb.flushTlbMvaAsid            0                       # Number of times TLB was flushed by MVA & ASID (Count)
system.cpu.mmu.stage2_itb.flushTlbAsid              0                       # Number of times TLB was flushed by ASID (Count)
system.cpu.mmu.stage2_itb.flushedEntries            0                       # Number of entries that have been flushed from TLB (Count)
system.cpu.mmu.stage2_itb.instAccesses              0                       # Inst accesses (Count)
system.cpu.mmu.stage2_itb.hits                      0                       # Total TLB (inst and data) hits (Count)
system.cpu.mmu.stage2_itb.misses                    0                       # Total TLB (inst and data) misses (Count)
system.cpu.mmu.stage2_itb.accesses                  0                       # Total TLB (inst and data) accesses (Count)
system.cpu.mmu.stage2_itb_walker.walks              0                       # Table walker walks requested (Count)
system.cpu.mmu.stage2_itb_walker.requestOrigin_Requested::Data            0                       # Table walker requests started/completed, data/inst (Count)
system.cpu.mmu.stage2_itb_walker.requestOrigin_Requested::Inst            0                       # Table walker requests started/completed, data/inst (Count)
system.cpu.mmu.stage2_itb_walker.requestOrigin_Requested::total            0                       # Table walker requests started/completed, data/inst (Count)
system.cpu.mmu.stage2_itb_walker.requestOrigin_Completed::Data            0                       # Table walker requests started/completed, data/inst (Count)
system.cpu.mmu.stage2_itb_walker.requestOrigin_Completed::Inst            0                       # Table walker requests started/completed, data/inst (Count)
system.cpu.mmu.stage2_itb_walker.requestOrigin_Completed::total            0                       # Table walker requests started/completed, data/inst (Count)
system.cpu.mmu.stage2_itb_walker.requestOrigin::total            0                       # Table walker requests started/completed, data/inst (Count)
system.cpu.mmu.stage2_itb_walker.power_state.pwrStateResidencyTicks::UNDEFINED 143694904500                       # Cumulative time (in ticks) in various power states (Tick)
system.cpu.power_state.pwrStateResidencyTicks::ON 143694904500                       # Cumulative time (in ticks) in various power states (Tick)
system.cpu.thread_0.numInsts                100000000                       # Number of Instructions committed (Count)
system.cpu.thread_0.numOps                  100677219                       # Number of Ops committed (Count)
system.cpu.thread_0.numMemRefs                      0                       # Number of Memory References (Count)
system.cpu.workload.numSyscalls                    84                       # Number of system calls (Count)
system.cpu_clk_domain.clock                       500                       # Clock period in ticks (Tick)
system.cpu_voltage_domain.voltage                   1                       # Voltage in Volts (Volt)
system.l2.demandHits::cpu.inst                     15                       # number of demand (read+write) hits (Count)
system.l2.demandHits::cpu.data                 383467                       # number of demand (read+write) hits (Count)
system.l2.demandHits::total                    383482                       # number of demand (read+write) hits (Count)
system.l2.overallHits::cpu.inst                    15                       # number of overall hits (Count)
system.l2.overallHits::cpu.data                383467                       # number of overall hits (Count)
system.l2.overallHits::total                   383482                       # number of overall hits (Count)
system.l2.demandMisses::cpu.inst                  528                       # number of demand (read+write) misses (Count)
system.l2.demandMisses::cpu.data               971797                       # number of demand (read+write) misses (Count)
system.l2.demandMisses::total                  972325                       # number of demand (read+write) misses (Count)
system.l2.overallMisses::cpu.inst                 528                       # number of overall misses (Count)
system.l2.overallMisses::cpu.data              971797                       # number of overall misses (Count)
system.l2.overallMisses::total                 972325                       # number of overall misses (Count)
system.l2.demandMissLatency::cpu.inst        44709000                       # number of demand (read+write) miss ticks (Tick)
system.l2.demandMissLatency::cpu.data     98323461000                       # number of demand (read+write) miss ticks (Tick)
system.l2.demandMissLatency::total        98368170000                       # number of demand (read+write) miss ticks (Tick)
system.l2.overallMissLatency::cpu.inst       44709000                       # number of overall miss ticks (Tick)
system.l2.overallMissLatency::cpu.data    98323461000                       # number of overall miss ticks (Tick)
system.l2.overallMissLatency::total       98368170000                       # number of overall miss ticks (Tick)
system.l2.demandAccesses::cpu.inst                543                       # number of demand (read+write) accesses (Count)
system.l2.demandAccesses::cpu.data            1355264                       # number of demand (read+write) accesses (Count)
system.l2.demandAccesses::total               1355807                       # number of demand (read+write) accesses (Count)
system.l2.overallAccesses::cpu.inst               543                       # number of overall (read+write) accesses (Count)
system.l2.overallAccesses::cpu.data           1355264                       # number of overall (read+write) accesses (Count)
system.l2.overallAccesses::total              1355807                       # number of overall (read+write) accesses (Count)
system.l2.demandMissRate::cpu.inst           0.972376                       # miss rate for demand accesses (Ratio)
system.l2.demandMissRate::cpu.data           0.717054                       # miss rate for demand accesses (Ratio)
system.l2.demandMissRate::total              0.717156                       # miss rate for demand accesses (Ratio)
system.l2.overallMissRate::cpu.inst          0.972376                       # miss rate for overall accesses (Ratio)
system.l2.overallMissRate::cpu.data          0.717054                       # miss rate for overall accesses (Ratio)
system.l2.overallMissRate::total             0.717156                       # miss rate for overall accesses (Ratio)
system.l2.demandAvgMissLatency::cpu.inst 84676.136364                       # average overall miss latency in ticks ((Tick/Count))
system.l2.demandAvgMissLatency::cpu.data 101176.954652                       # average overall miss latency in ticks ((Tick/Count))
system.l2.demandAvgMissLatency::total    101167.994241                       # average overall miss latency in ticks ((Tick/Count))
system.l2.overallAvgMissLatency::cpu.inst 84676.136364                       # average overall miss latency ((Tick/Count))
system.l2.overallAvgMissLatency::cpu.data 101176.954652                       # average overall miss latency ((Tick/Count))
system.l2.overallAvgMissLatency::total   101167.994241                       # average overall miss latency ((Tick/Count))
system.l2.blockedCycles::no_mshrs                   0                       # number of cycles access was blocked (Cycle)
system.l2.blockedCycles::no_targets                 0                       # number of cycles access was blocked (Cycle)
system.l2.blockedCauses::no_mshrs                   0                       # number of times access was blocked (Count)
system.l2.blockedCauses::no_targets                 0                       # number of times access was blocked (Count)
system.l2.avgBlocked::no_mshrs                    nan                       # average number of cycles each access was blocked ((Cycle/Count))
system.l2.avgBlocked::no_targets                  nan                       # average number of cycles each access was blocked ((Cycle/Count))
system.l2.writebacks::writebacks               827608                       # number of writebacks (Count)
system.l2.writebacks::total                    827608                       # number of writebacks (Count)
system.l2.demandMshrMisses::cpu.inst              528                       # number of demand (read+write) MSHR misses (Count)
system.l2.demandMshrMisses::cpu.data           971797                       # number of demand (read+write) MSHR misses (Count)
system.l2.demandMshrMisses::total              972325                       # number of demand (read+write) MSHR misses (Count)
system.l2.overallMshrMisses::cpu.inst             528                       # number of overall MSHR misses (Count)
system.l2.overallMshrMisses::cpu.data          971797                       # number of overall MSHR misses (Count)
system.l2.overallMshrMisses::total             972325                       # number of overall MSHR misses (Count)
system.l2.demandMshrMissLatency::cpu.inst     39429000                       # number of demand (read+write) MSHR miss ticks (Tick)
system.l2.demandMshrMissLatency::cpu.data  88605491000                       # number of demand (read+write) MSHR miss ticks (Tick)
system.l2.demandMshrMissLatency::total    88644920000                       # number of demand (read+write) MSHR miss ticks (Tick)
system.l2.overallMshrMissLatency::cpu.inst     39429000                       # number of overall MSHR miss ticks (Tick)
system.l2.overallMshrMissLatency::cpu.data  88605491000                       # number of overall MSHR miss ticks (Tick)
system.l2.overallMshrMissLatency::total   88644920000                       # number of overall MSHR miss ticks (Tick)
system.l2.demandMshrMissRate::cpu.inst       0.972376                       # mshr miss ratio for demand accesses (Ratio)
system.l2.demandMshrMissRate::cpu.data       0.717054                       # mshr miss ratio for demand accesses (Ratio)
system.l2.demandMshrMissRate::total          0.717156                       # mshr miss ratio for demand accesses (Ratio)
system.l2.overallMshrMissRate::cpu.inst      0.972376                       # mshr miss ratio for overall accesses (Ratio)
system.l2.overallMshrMissRate::cpu.data      0.717054                       # mshr miss ratio for overall accesses (Ratio)
system.l2.overallMshrMissRate::total         0.717156                       # mshr miss ratio for overall accesses (Ratio)
system.l2.demandAvgMshrMissLatency::cpu.inst 74676.136364                       # average overall mshr miss latency ((Tick/Count))
system.l2.demandAvgMshrMissLatency::cpu.data 91176.954652                       # average overall mshr miss latency ((Tick/Count))
system.l2.demandAvgMshrMissLatency::total 91167.994241                       # average overall mshr miss latency ((Tick/Count))
system.l2.overallAvgMshrMissLatency::cpu.inst 74676.136364                       # average overall mshr miss latency ((Tick/Count))
system.l2.overallAvgMshrMissLatency::cpu.data 91176.954652                       # average overall mshr miss latency ((Tick/Count))
system.l2.overallAvgMshrMissLatency::total 91167.994241                       # average overall mshr miss latency ((Tick/Count))
system.l2.replacements                        1387951                       # number of replacements (Count)
system.l2.CleanEvict.mshrMisses::writebacks        27897                       # number of CleanEvict MSHR misses (Count)
system.l2.CleanEvict.mshrMisses::total          27897                       # number of CleanEvict MSHR misses (Count)
system.l2.CleanEvict.mshrMissRate::writebacks          inf                       # mshr miss rate for CleanEvict accesses (Ratio)
system.l2.CleanEvict.mshrMissRate::total          inf                       # mshr miss rate for CleanEvict accesses (Ratio)
system.l2.ReadCleanReq.hits::cpu.inst              15                       # number of ReadCleanReq hits (Count)
system.l2.ReadCleanReq.hits::total                 15                       # number of ReadCleanReq hits (Count)
system.l2.ReadCleanReq.misses::cpu.inst           528                       # number of ReadCleanReq misses (Count)
system.l2.ReadCleanReq.misses::total              528                       # number of ReadCleanReq misses (Count)
system.l2.ReadCleanReq.missLatency::cpu.inst     44709000                       # number of ReadCleanReq miss ticks (Tick)
system.l2.ReadCleanReq.missLatency::total     44709000                       # number of ReadCleanReq miss ticks (Tick)
system.l2.ReadCleanReq.accesses::cpu.inst          543                       # number of ReadCleanReq accesses(hits+misses) (Count)
system.l2.ReadCleanReq.accesses::total            543                       # number of ReadCleanReq accesses(hits+misses) (Count)
system.l2.ReadCleanReq.missRate::cpu.inst     0.972376                       # miss rate for ReadCleanReq accesses (Ratio)
system.l2.ReadCleanReq.missRate::total       0.972376                       # miss rate for ReadCleanReq accesses (Ratio)
system.l2.ReadCleanReq.avgMissLatency::cpu.inst 84676.136364                       # average ReadCleanReq miss latency ((Tick/Count))
system.l2.ReadCleanReq.avgMissLatency::total 84676.136364                       # average ReadCleanReq miss latency ((Tick/Count))
system.l2.ReadCleanReq.mshrMisses::cpu.inst          528                       # number of ReadCleanReq MSHR misses (Count)
system.l2.ReadCleanReq.mshrMisses::total          528                       # number of ReadCleanReq MSHR misses (Count)
system.l2.ReadCleanReq.mshrMissLatency::cpu.inst     39429000                       # number of ReadCleanReq MSHR miss ticks (Tick)
system.l2.ReadCleanReq.mshrMissLatency::total     39429000                       # number of ReadCleanReq MSHR miss ticks (Tick)
system.l2.ReadCleanReq.mshrMissRate::cpu.inst     0.972376                       # mshr miss rate for ReadCleanReq accesses (Ratio)
system.l2.ReadCleanReq.mshrMissRate::total     0.972376                       # mshr miss rate for ReadCleanReq accesses (Ratio)
system.l2.ReadCleanReq.avgMshrMissLatency::cpu.inst 74676.136364                       # average ReadCleanReq mshr miss latency ((Tick/Count))
system.l2.ReadCleanReq.avgMshrMissLatency::total 74676.136364                       # average ReadCleanReq mshr miss latency ((Tick/Count))
system.l2.ReadExReq.hits::cpu.data             122590                       # number of ReadExReq hits (Count)
system.l2.ReadExReq.hits::total                122590                       # number of ReadExReq hits (Count)
system.l2.ReadExReq.misses::cpu.data           382858                       # number of ReadExReq misses (Count)
system.l2.ReadExReq.misses::total              382858                       # number of ReadExReq misses (Count)
system.l2.ReadExReq.missLatency::cpu.data  41127575500                       # number of ReadExReq miss ticks (Tick)
system.l2.ReadExReq.missLatency::total    41127575500                       # number of ReadExReq miss ticks (Tick)
system.l2.ReadExReq.accesses::cpu.data         505448                       # number of ReadExReq accesses(hits+misses) (Count)
system.l2.ReadExReq.accesses::total            505448                       # number of ReadExReq accesses(hits+misses) (Count)
system.l2.ReadExReq.missRate::cpu.data       0.757463                       # miss rate for ReadExReq accesses (Ratio)
system.l2.ReadExReq.missRate::total          0.757463                       # miss rate for ReadExReq accesses (Ratio)
system.l2.ReadExReq.avgMissLatency::cpu.data 107422.531330                       # average ReadExReq miss latency ((Tick/Count))
system.l2.ReadExReq.avgMissLatency::total 107422.531330                       # average ReadExReq miss latency ((Tick/Count))
system.l2.ReadExReq.mshrMisses::cpu.data       382858                       # number of ReadExReq MSHR misses (Count)
system.l2.ReadExReq.mshrMisses::total          382858                       # number of ReadExReq MSHR misses (Count)
system.l2.ReadExReq.mshrMissLatency::cpu.data  37298995500                       # number of ReadExReq MSHR miss ticks (Tick)
system.l2.ReadExReq.mshrMissLatency::total  37298995500                       # number of ReadExReq MSHR miss ticks (Tick)
system.l2.ReadExReq.mshrMissRate::cpu.data     0.757463                       # mshr miss rate for ReadExReq accesses (Ratio)
system.l2.ReadExReq.mshrMissRate::total      0.757463                       # mshr miss rate for ReadExReq accesses (Ratio)
system.l2.ReadExReq.avgMshrMissLatency::cpu.data 97422.531330                       # average ReadExReq mshr miss latency ((Tick/Count))
system.l2.ReadExReq.avgMshrMissLatency::total 97422.531330                       # average ReadExReq mshr miss latency ((Tick/Count))
system.l2.ReadSharedReq.hits::cpu.data         260877                       # number of ReadSharedReq hits (Count)
system.l2.ReadSharedReq.hits::total            260877                       # number of ReadSharedReq hits (Count)
system.l2.ReadSharedReq.misses::cpu.data       588939                       # number of ReadSharedReq misses (Count)
system.l2.ReadSharedReq.misses::total          588939                       # number of ReadSharedReq misses (Count)
system.l2.ReadSharedReq.missLatency::cpu.data  57195885500                       # number of ReadSharedReq miss ticks (Tick)
system.l2.ReadSharedReq.missLatency::total  57195885500                       # number of ReadSharedReq miss ticks (Tick)
system.l2.ReadSharedReq.accesses::cpu.data       849816                       # number of ReadSharedReq accesses(hits+misses) (Count)
system.l2.ReadSharedReq.accesses::total        849816                       # number of ReadSharedReq accesses(hits+misses) (Count)
system.l2.ReadSharedReq.missRate::cpu.data     0.693019                       # miss rate for ReadSharedReq accesses (Ratio)
system.l2.ReadSharedReq.missRate::total      0.693019                       # miss rate for ReadSharedReq accesses (Ratio)
system.l2.ReadSharedReq.avgMissLatency::cpu.data 97116.824493                       # average ReadSharedReq miss latency ((Tick/Count))
system.l2.ReadSharedReq.avgMissLatency::total 97116.824493                       # average ReadSharedReq miss latency ((Tick/Count))
system.l2.ReadSharedReq.mshrMisses::cpu.data       588939                       # number of ReadSharedReq MSHR misses (Count)
system.l2.ReadSharedReq.mshrMisses::total       588939                       # number of ReadSharedReq MSHR misses (Count)
system.l2.ReadSharedReq.mshrMissLatency::cpu.data  51306495500                       # number of ReadSharedReq MSHR miss ticks (Tick)
system.l2.ReadSharedReq.mshrMissLatency::total  51306495500                       # number of ReadSharedReq MSHR miss ticks (Tick)
system.l2.ReadSharedReq.mshrMissRate::cpu.data     0.693019                       # mshr miss rate for ReadSharedReq accesses (Ratio)
system.l2.ReadSharedReq.mshrMissRate::total     0.693019                       # mshr miss rate for ReadSharedReq accesses (Ratio)
system.l2.ReadSharedReq.avgMshrMissLatency::cpu.data 87116.824493                       # average ReadSharedReq mshr miss latency ((Tick/Count))
system.l2.ReadSharedReq.avgMshrMissLatency::total 87116.824493                       # average ReadSharedReq mshr miss latency ((Tick/Count))
system.l2.WritebackClean.hits::writebacks          142                       # number of WritebackClean hits (Count)
system.l2.WritebackClean.hits::total              142                       # number of WritebackClean hits (Count)
system.l2.WritebackClean.accesses::writebacks          142                       # number of WritebackClean accesses(hits+misses) (Count)
system.l2.WritebackClean.accesses::total          142                       # number of WritebackClean accesses(hits+misses) (Count)
system.l2.WritebackDirty.hits::writebacks      1184918                       # number of WritebackDirty hits (Count)
system.l2.WritebackDirty.hits::total          1184918                       # number of WritebackDirty hits (Count)
system.l2.WritebackDirty.accesses::writebacks      1184918                       # number of WritebackDirty accesses(hits+misses) (Count)
system.l2.WritebackDirty.accesses::total      1184918                       # number of WritebackDirty accesses(hits+misses) (Count)
system.l2.power_state.pwrStateResidencyTicks::UNDEFINED 143694904500                       # Cumulative time (in ticks) in various power states (Tick)
system.l2.tags.tagsInUse                   255.451312                       # Average ticks per tags in use ((Tick/Count))
system.l2.tags.totalRefs                      2683250                       # Total number of references to valid blocks. (Count)
system.l2.tags.sampledRefs                    1388207                       # Sample count of references to valid blocks. (Count)
system.l2.tags.avgRefs                       1.932889                       # Average number of references to valid blocks. ((Count/Count))
system.l2.tags.warmupTick                       82000                       # The tick when the warmup percentage was hit. (Tick)
system.l2.tags.occupancies::writebacks      50.651997                       # Average occupied blocks per tick, per requestor ((Count/Tick))
system.l2.tags.occupancies::cpu.inst         1.515073                       # Average occupied blocks per tick, per requestor ((Count/Tick))
system.l2.tags.occupancies::cpu.data       203.284242                       # Average occupied blocks per tick, per requestor ((Count/Tick))
system.l2.tags.avgOccs::writebacks           0.197859                       # Average percentage of cache occupancy ((Ratio/Tick))
system.l2.tags.avgOccs::cpu.inst             0.005918                       # Average percentage of cache occupancy ((Ratio/Tick))
system.l2.tags.avgOccs::cpu.data             0.794079                       # Average percentage of cache occupancy ((Ratio/Tick))
system.l2.tags.avgOccs::total                0.997857                       # Average percentage of cache occupancy ((Ratio/Tick))
system.l2.tags.occupanciesTaskId::1024            256                       # Occupied blocks per task id (Count)
system.l2.tags.ageTaskId_1024::0                    4                       # Occupied blocks per task id, per block age (Count)
system.l2.tags.ageTaskId_1024::1                  154                       # Occupied blocks per task id, per block age (Count)
system.l2.tags.ageTaskId_1024::2                   98                       # Occupied blocks per task id, per block age (Count)
system.l2.tags.ratioOccsTaskId::1024                1                       # Ratio of occupied blocks and all blocks, per task id (Ratio)
system.l2.tags.tagAccesses                    4099354                       # Number of tag accesses (Count)
system.l2.tags.dataAccesses                   4099354                       # Number of data accesses (Count)
system.l2.tags.power_state.pwrStateResidencyTicks::UNDEFINED 143694904500                       # Cumulative time (in ticks) in various power states (Tick)
system.mem_ctrls.avgPriority_writebacks::samples   1647632.00                       # Average QoS priority value for accepted requests (Count)
system.mem_ctrls.avgPriority_cpu.inst::samples      1056.00                       # Average QoS priority value for accepted requests (Count)
system.mem_ctrls.avgPriority_cpu.data::samples   1859695.00                       # Average QoS priority value for accepted requests (Count)
system.mem_ctrls.priorityMinLatency      0.000000018750                       # per QoS priority minimum request to response latency (Second)
system.mem_ctrls.priorityMaxLatency      0.001604164500                       # per QoS priority maximum request to response latency (Second)
system.mem_ctrls.numReadWriteTurnArounds        98142                       # Number of turnarounds from READ to WRITE (Count)
system.mem_ctrls.numWriteReadTurnArounds        98142                       # Number of turnarounds from WRITE to READ (Count)
system.mem_ctrls.numStayReadState             3419895                       # Number of times bus staying in READ state (Count)
system.mem_ctrls.numStayWriteState            1551336                       # Number of times bus staying in WRITE state (Count)
system.mem_ctrls.readReqs                      972325                       # Number of read requests accepted (Count)
system.mem_ctrls.writeReqs                     827608                       # Number of write requests accepted (Count)
system.mem_ctrls.readBursts                   1944650                       # Number of controller read bursts, including those serviced by the write queue (Count)
system.mem_ctrls.writeBursts                  1655216                       # Number of controller write bursts, including those merged in the write queue (Count)
system.mem_ctrls.servicedByWrQ                  83899                       # Number of controller read bursts serviced by the write queue (Count)
system.mem_ctrls.mergedWrBursts                  7584                       # Number of controller write bursts merged with an existing one (Count)
system.mem_ctrls.neitherReadNorWriteReqs            0                       # Number of requests that are neither read nor write (Count)
system.mem_ctrls.avgRdQLen                       2.37                       # Average read queue length when enqueuing ((Count/Tick))
system.mem_ctrls.avgWrQLen                      25.94                       # Average write queue length when enqueuing ((Count/Tick))
system.mem_ctrls.numRdRetry                         0                       # Number of times read queue was full causing retry (Count)
system.mem_ctrls.numWrRetry                         0                       # Number of times write queue was full causing retry (Count)
system.mem_ctrls.readPktSize::0                     0                       # Read request sizes (log2) (Count)
system.mem_ctrls.readPktSize::1                     0                       # Read request sizes (log2) (Count)
system.mem_ctrls.readPktSize::2                     0                       # Read request sizes (log2) (Count)
system.mem_ctrls.readPktSize::3                     0                       # Read request sizes (log2) (Count)
system.mem_ctrls.readPktSize::4                     0                       # Read request sizes (log2) (Count)
system.mem_ctrls.readPktSize::5                     0                       # Read request sizes (log2) (Count)
system.mem_ctrls.readPktSize::6               1944650                       # Read request sizes (log2) (Count)
system.mem_ctrls.readPktSize::7                     0                       # Read request sizes (log2) (Count)
system.mem_ctrls.writePktSize::0                    0                       # Write request sizes (log2) (Count)
system.mem_ctrls.writePktSize::1                    0                       # Write request sizes (log2) (Count)
system.mem_ctrls.writePktSize::2                    0                       # Write request sizes (log2) (Count)
system.mem_ctrls.writePktSize::3                    0                       # Write request sizes (log2) (Count)
system.mem_ctrls.writePktSize::4                    0                       # Write request sizes (log2) (Count)
system.mem_ctrls.writePktSize::5                    0                       # Write request sizes (log2) (Count)
system.mem_ctrls.writePktSize::6              1655216                       # Write request sizes (log2) (Count)
system.mem_ctrls.writePktSize::7                    0                       # Write request sizes (log2) (Count)
system.mem_ctrls.rdQLenPdf::0                  720973                       # What read queue length does an incoming req see (Count)
system.mem_ctrls.rdQLenPdf::1                  730101                       # What read queue length does an incoming req see (Count)
system.mem_ctrls.rdQLenPdf::2                  210552                       # What read queue length does an incoming req see (Count)
system.mem_ctrls.rdQLenPdf::3                  199110                       # What read queue length does an incoming req see (Count)
[...]
system.mem_ctrls.dram.perBankWrBursts::9        81738                       # Per bank write bursts (Count)
system.mem_ctrls.dram.perBankWrBursts::10       129881                       # Per bank write bursts (Count)
system.mem_ctrls.dram.perBankWrBursts::11        73242                       # Per bank write bursts (Count)
system.mem_ctrls.dram.perBankWrBursts::12       106914                       # Per bank write bursts (Count)
system.mem_ctrls.dram.perBankWrBursts::13        76671                       # Per bank write bursts (Count)
system.mem_ctrls.dram.perBankWrBursts::14        74947                       # Per bank write bursts (Count)
system.mem_ctrls.dram.perBankWrBursts::15        81925                       # Per bank write bursts (Count)
system.mem_ctrls.dram.totQLat             57264570250                       # Total ticks spent queuing (Tick)
system.mem_ctrls.dram.totBusLat            9303755000                       # Total ticks spent in databus transfers (Tick)
system.mem_ctrls.dram.totMemAccLat        92153651500                       # Total ticks spent from burst creation until serviced by the DRAM (Tick)
system.mem_ctrls.dram.avgQLat                30774.98                       # Average queueing delay per DRAM burst ((Tick/Count))
system.mem_ctrls.dram.avgBusLat               5000.00                       # Average bus latency per DRAM burst ((Tick/Count))
system.mem_ctrls.dram.avgMemAccLat           49524.98                       # Average memory access latency per DRAM burst ((Tick/Count))
system.mem_ctrls.dram.readRowHits             1223455                       # Number of row buffer hits during reads (Count)
system.mem_ctrls.dram.writeRowHits            1119316                       # Number of row buffer hits during writes (Count)
system.mem_ctrls.dram.readRowHitRate            65.75                       # Row buffer hit rate for reads (Ratio)
system.mem_ctrls.dram.writeRowHitRate           67.94                       # Row buffer hit rate for writes (Ratio)
system.mem_ctrls.dram.bytesPerActivate::samples      1165594                       # Bytes accessed per row activation (Byte)
system.mem_ctrls.dram.bytesPerActivate::mean   192.635830                       # Bytes accessed per row activation (Byte)
system.mem_ctrls.dram.bytesPerActivate::gmean   159.814861                       # Bytes accessed per row activation (Byte)
system.mem_ctrls.dram.bytesPerActivate::stdev   170.805818                       # Bytes accessed per row activation (Byte)
system.mem_ctrls.dram.bytesPerActivate::0-127        40018      3.43%      3.43% # Bytes accessed per row activation (Byte)
system.mem_ctrls.dram.bytesPerActivate::128-255       852102     73.10%     76.54% # Bytes accessed per row activation (Byte)
system.mem_ctrls.dram.bytesPerActivate::256-383       158181     13.57%     90.11% # Bytes accessed per row activation (Byte)
system.mem_ctrls.dram.bytesPerActivate::384-511        48412      4.15%     94.26% # Bytes accessed per row activation (Byte)
system.mem_ctrls.dram.bytesPerActivate::512-639        20472      1.76%     96.02% # Bytes accessed per row activation (Byte)
system.mem_ctrls.dram.bytesPerActivate::640-767         9334      0.80%     96.82% # Bytes accessed per row activation (Byte)
system.mem_ctrls.dram.bytesPerActivate::768-895         5091      0.44%     97.26% # Bytes accessed per row activation (Byte)
system.mem_ctrls.dram.bytesPerActivate::896-1023         2923      0.25%     97.51% # Bytes accessed per row activation (Byte)
system.mem_ctrls.dram.bytesPerActivate::1024-1151        29061      2.49%    100.00% # Bytes accessed per row activation (Byte)
system.mem_ctrls.dram.bytesPerActivate::total      1165594                       # Bytes accessed per row activation (Byte)
system.mem_ctrls.dram.bytesRead             119088064                       # Total bytes read (Byte)
system.mem_ctrls.dram.bytesWritten          105447488                       # Total bytes written (Byte)
system.mem_ctrls.dram.avgRdBW              828.756346                       # Average DRAM read bandwidth in MiBytes/s ((Byte/Second))
system.mem_ctrls.dram.avgWrBW              733.828999                       # Average DRAM write bandwidth in MiBytes/s ((Byte/Second))
system.mem_ctrls.dram.peakBW                 12800.00                       # Theoretical peak bandwidth in MiByte/s ((Byte/Second))
system.mem_ctrls.dram.busUtil                   12.21                       # Data bus utilization in percentage (Ratio)
system.mem_ctrls.dram.busUtilRead                6.47                       # Data bus utilization in percentage for reads (Ratio)
system.mem_ctrls.dram.busUtilWrite               5.73                       # Data bus utilization in percentage for writes (Ratio)
system.mem_ctrls.dram.pageHitRate               66.78                       # Row buffer hit rate, read and write combined (Ratio)
system.mem_ctrls.dram.power_state.pwrStateResidencyTicks::UNDEFINED 143694904500                       # Cumulative time (in ticks) in various power states (Tick)
system.mem_ctrls.dram.rank0.actEnergy      4284599760                       # Energy for activate commands per rank (pJ) (Joule)
system.mem_ctrls.dram.rank0.preEnergy      2277307395                       # Energy for precharge commands per rank (pJ) (Joule)
system.mem_ctrls.dram.rank0.readEnergy     6802999140                       # Energy for read commands per rank (pJ) (Joule)
system.mem_ctrls.dram.rank0.writeEnergy    4382513640                       # Energy for write commands per rank (pJ) (Joule)
system.mem_ctrls.dram.rank0.refreshEnergy 11342566560.000002                       # Energy for refresh commands per rank (pJ) (Joule)
system.mem_ctrls.dram.rank0.actBackEnergy  50140002120                       # Energy for active background per rank (pJ) (Joule)
system.mem_ctrls.dram.rank0.preBackEnergy  12955683840                       # Energy for precharge background per rank (pJ) (Joule)
system.mem_ctrls.dram.rank0.actPowerDownEnergy            0                       # Energy for active power-down per rank (pJ) (Joule)
system.mem_ctrls.dram.rank0.prePowerDownEnergy            0                       # Energy for precharge power-down per rank (pJ) (Joule)
system.mem_ctrls.dram.rank0.selfRefreshEnergy            0                       # Energy for self refresh per rank (pJ) (Joule)
system.mem_ctrls.dram.rank0.totalEnergy   92185672455                       # Total energy per rank (pJ) (Joule)
system.mem_ctrls.dram.rank0.averagePower   641.537519                       # Core power per rank (mW) (Watt)
system.mem_ctrls.dram.rank0.totalIdleTime            0                       # Total Idle time Per DRAM Rank (Tick)
system.mem_ctrls.dram.rank0.pwrStateTime::IDLE  33210672000                       # Time in different power states (Tick)
system.mem_ctrls.dram.rank0.pwrStateTime::REF   4798040000                       # Time in different power states (Tick)
system.mem_ctrls.dram.rank0.pwrStateTime::SREF            0                       # Time in different power states (Tick)
system.mem_ctrls.dram.rank0.pwrStateTime::PRE_PDN            0                       # Time in different power states (Tick)
system.mem_ctrls.dram.rank0.pwrStateTime::ACT 105686192500                       # Time in different power states (Tick)
system.mem_ctrls.dram.rank0.pwrStateTime::ACT_PDN            0                       # Time in different power states (Tick)
system.mem_ctrls.dram.rank1.actEnergy      4037762820                       # Energy for activate commands per rank (pJ) (Joule)
system.mem_ctrls.dram.rank1.preEnergy      2146121835                       # Energy for precharge commands per rank (pJ) (Joule)
system.mem_ctrls.dram.rank1.readEnergy     6482763000                       # Energy for read commands per rank (pJ) (Joule)
system.mem_ctrls.dram.rank1.writeEnergy    4218047100                       # Energy for write commands per rank (pJ) (Joule)
system.mem_ctrls.dram.rank1.refreshEnergy 11342566560.000002                       # Energy for refresh commands per rank (pJ) (Joule)
system.mem_ctrls.dram.rank1.actBackEnergy  49612116000                       # Energy for active background per rank (pJ) (Joule)
system.mem_ctrls.dram.rank1.preBackEnergy  13400219520                       # Energy for precharge background per rank (pJ) (Joule)
system.mem_ctrls.dram.rank1.actPowerDownEnergy            0                       # Energy for active power-down per rank (pJ) (Joule)
system.mem_ctrls.dram.rank1.prePowerDownEnergy            0                       # Energy for precharge power-down per rank (pJ) (Joule)
system.mem_ctrls.dram.rank1.selfRefreshEnergy            0                       # Energy for self refresh per rank (pJ) (Joule)
system.mem_ctrls.dram.rank1.totalEnergy   91239596835                       # Total energy per rank (pJ) (Joule)
system.mem_ctrls.dram.rank1.averagePower   634.953599                       # Core power per rank (mW) (Watt)
system.mem_ctrls.dram.rank1.totalIdleTime            0                       # Total Idle time Per DRAM Rank (Tick)
system.mem_ctrls.dram.rank1.pwrStateTime::IDLE  34360903750                       # Time in different power states (Tick)
system.mem_ctrls.dram.rank1.pwrStateTime::REF   4798040000                       # Time in different power states (Tick)
system.mem_ctrls.dram.rank1.pwrStateTime::SREF            0                       # Time in different power states (Tick)
system.mem_ctrls.dram.rank1.pwrStateTime::PRE_PDN            0                       # Time in different power states (Tick)
system.mem_ctrls.dram.rank1.pwrStateTime::ACT 104535960750                       # Time in different power states (Tick)
system.mem_ctrls.dram.rank1.pwrStateTime::ACT_PDN            0                       # Time in different power states (Tick)
system.mem_ctrls.power_state.pwrStateResidencyTicks::UNDEFINED 143694904500                       # Cumulative time (in ticks) in various power states (Tick)
system.membus.transDist::ReadResp              589467                       # Transaction distribution (Count)
system.membus.transDist::WritebackDirty        827608                       # Transaction distribution (Count)
system.membus.transDist::CleanEvict            144049                       # Transaction distribution (Count)
system.membus.transDist::ReadExReq             382858                       # Transaction distribution (Count)
system.membus.transDist::ReadExResp            382858                       # Transaction distribution (Count)
system.membus.transDist::ReadSharedReq         589467                       # Transaction distribution (Count)
system.membus.pktCount_system.l2.mem_side_port::system.mem_ctrls.port      2916307                       # Packet count per connected requestor and responder (Count)
system.membus.pktCount::total                 2916307                       # Packet count per connected requestor and responder (Count)
system.membus.pktSize_system.l2.mem_side_port::system.mem_ctrls.port    230391424                       # Cumulative packet size per connected requestor and responder (Byte)
system.membus.pktSize::total                230391424                       # Cumulative packet size per connected requestor and responder (Byte)
system.membus.snoops                                0                       # Total snoops (Count)
system.membus.snoopTraffic                          0                       # Total snoop traffic (Byte)
system.membus.snoopFanout::samples             972325                       # Request fanout histogram (Count)
system.membus.snoopFanout::mean                     0                       # Request fanout histogram (Count)
system.membus.snoopFanout::stdev                    0                       # Request fanout histogram (Count)
system.membus.snoopFanout::underflows               0      0.00%      0.00% # Request fanout histogram (Count)
system.membus.snoopFanout::0                   972325    100.00%    100.00% # Request fanout histogram (Count)
system.membus.snoopFanout::1                        0      0.00%    100.00% # Request fanout histogram (Count)
system.membus.snoopFanout::overflows                0      0.00%    100.00% # Request fanout histogram (Count)
system.membus.snoopFanout::min_value                0                       # Request fanout histogram (Count)
system.membus.snoopFanout::max_value                0                       # Request fanout histogram (Count)
system.membus.snoopFanout::total               972325                       # Request fanout histogram (Count)
system.membus.power_state.pwrStateResidencyTicks::UNDEFINED 143694904500                       # Cumulative time (in ticks) in various power states (Tick)
system.membus.reqLayer0.occupancy          8765119000                       # Layer occupancy (ticks) (Tick)
system.membus.reqLayer0.utilization               0.1                       # Layer utilization (Ratio)
system.membus.respLayer1.occupancy         9210891750                       # Layer occupancy (ticks) (Tick)
system.membus.respLayer1.utilization              0.1                       # Layer utilization (Ratio)
system.membus.snoop_filter.totRequests        1943982                       # Total number of requests made to the snoop filter. (Count)
system.membus.snoop_filter.hitSingleRequests       971658                       # Number of requests hitting in the snoop filter with a single holder of the requested data. (Count)
system.membus.snoop_filter.hitMultiRequests            0                       # Number of requests hitting in the snoop filter with multiple (>1) holders of the requested data. (Count)
system.membus.snoop_filter.totSnoops                0                       # Total number of snoops made to the snoop filter. (Count)
system.membus.snoop_filter.hitSingleSnoops            0                       # Number of snoops hitting in the snoop filter with a single holder of the requested data. (Count)
system.membus.snoop_filter.hitMultiSnoops            0                       # Number of snoops hitting in the snoop filter with multiple (>1) holders of the requested data. (Count)
system.tol2bus.transDist::ReadResp             850359                       # Transaction distribution (Count)
system.tol2bus.transDist::WritebackDirty      2012526                       # Transaction distribution (Count)
system.tol2bus.transDist::WritebackClean          142                       # Transaction distribution (Count)
system.tol2bus.transDist::CleanEvict           730625                       # Transaction distribution (Count)
system.tol2bus.transDist::ReadExReq            505448                       # Transaction distribution (Count)
system.tol2bus.transDist::ReadExResp           505448                       # Transaction distribution (Count)
system.tol2bus.transDist::ReadCleanReq            543                       # Transaction distribution (Count)
system.tol2bus.transDist::ReadSharedReq        849816                       # Transaction distribution (Count)
system.tol2bus.pktCount_system.cpu.icache.mem_side_port::system.l2.cpu_side_port         1228                       # Packet count per connected requestor and responder (Count)
system.tol2bus.pktCount_system.cpu.dcache.mem_side_port::system.l2.cpu_side_port      4065728                       # Packet count per connected requestor and responder (Count)
system.tol2bus.pktCount::total                4066956                       # Packet count per connected requestor and responder (Count)
system.tol2bus.pktSize_system.cpu.icache.mem_side_port::system.l2.cpu_side_port        87680                       # Cumulative packet size per connected requestor and responder (Byte)
system.tol2bus.pktSize_system.cpu.dcache.mem_side_port::system.l2.cpu_side_port    325143296                       # Cumulative packet size per connected requestor and responder (Byte)
system.tol2bus.pktSize::total               325230976                       # Cumulative packet size per connected requestor and responder (Byte)
system.tol2bus.snoops                         1387951                       # Total snoops (Count)
system.tol2bus.snoopTraffic                 105933824                       # Total snoop traffic (Byte)
system.tol2bus.snoopFanout::samples           2743758                       # Request fanout histogram (Count)
system.tol2bus.snoopFanout::mean             0.161892                       # Request fanout histogram (Count)
system.tol2bus.snoopFanout::stdev            0.368352                       # Request fanout histogram (Count)
system.tol2bus.snoopFanout::underflows              0      0.00%      0.00% # Request fanout histogram (Count)
system.tol2bus.snoopFanout::0                 2299565     83.81%     83.81% # Request fanout histogram (Count)
system.tol2bus.snoopFanout::1                  444193     16.19%    100.00% # Request fanout histogram (Count)
system.tol2bus.snoopFanout::2                       0      0.00%    100.00% # Request fanout histogram (Count)
system.tol2bus.snoopFanout::overflows               0      0.00%    100.00% # Request fanout histogram (Count)
system.tol2bus.snoopFanout::min_value               0                       # Request fanout histogram (Count)
system.tol2bus.snoopFanout::max_value               1                       # Request fanout histogram (Count)
system.tol2bus.snoopFanout::total             2743758                       # Request fanout histogram (Count)
system.tol2bus.power_state.pwrStateResidencyTicks::UNDEFINED 143694904500                       # Cumulative time (in ticks) in various power states (Tick)
system.tol2bus.reqLayer0.occupancy         3725694500                       # Layer occupancy (ticks) (Tick)
system.tol2bus.reqLayer0.utilization              0.0                       # Layer utilization (Ratio)
system.tol2bus.respLayer0.occupancy           1357500                       # Layer occupancy (ticks) (Tick)
system.tol2bus.respLayer0.utilization             0.0                       # Layer utilization (Ratio)
system.tol2bus.respLayer1.occupancy        3388160000                       # Layer occupancy (ticks) (Tick)
system.tol2bus.respLayer1.utilization             0.0                       # Layer utilization (Ratio)
system.tol2bus.snoop_filter.totRequests       2711149                       # Total number of requests made to the snoop filter. (Count)
system.tol2bus.snoop_filter.hitSingleRequests      1355342                       # Number of requests hitting in the snoop filter with a single holder of the requested data. (Count)
system.tol2bus.snoop_filter.hitMultiRequests            2                       # Number of requests hitting in the snoop filter with multiple (>1) holders of the requested data. (Count)
system.tol2bus.snoop_filter.totSnoops          444191                       # Total number of snoops made to the snoop filter. (Count)
system.tol2bus.snoop_filter.hitSingleSnoops       444191                       # Number of snoops hitting in the snoop filter with a single holder of the requested data. (Count)
system.tol2bus.snoop_filter.hitMultiSnoops            0                       # Number of snoops hitting in the snoop filter with multiple (>1) holders of the requested data. (Count)
system.voltage_domain.voltage                       1                       # Voltage in Volts (Volt)
system.workload.inst.arm                            0                       # number of arm instructions executed (Count)
system.workload.inst.quiesce                        0                       # number of quiesce instructions executed (Count)
system.cpu.idleCycles                       154007380                       # Total number of cycles that the object has spent stopped (Unspecified)
system.cpu.tickCycles                       133382429                       # Number of cycles that the object actually ticked (Unspecified)

---------- End Simulation Statistics   ----------
