
---------- Begin Simulation Statistics ----------
simSeconds                                   0.016304                       # Number of seconds simulated (Second)
simTicks                                  16303991500                       # Number of ticks simulated (Tick)
finalTick                                 16303991500                       # Number of ticks from beginning of simulation (restored from checkpoints and never reset) (Tick)
simFreq                                  1000000000000                       # The number of ticks per simulated second ((Tick/Second))
hostSeconds                                     39.52                       # Real time elapsed on the host (Second)
hostTickRate                                412499092                       # The number of ticks simulated per host second (ticks/s) ((Tick/Second))
hostMemory                                     672648                       # Number of bytes of host memory used (Byte)
simInsts                                      3794559                       # Number of instructions simulated (Count)
simOps                                        3796499                       # Number of ops (including micro ops) simulated (Count)
hostInstRate                                    96004                       # Simulator instruction rate (inst/s) ((Count/Second))
hostOpRate                                      96053                       # Simulator op (including micro ops) rate (op/s) ((Count/Second))
system.clk_domain.clock                          1000                       # Clock period in ticks (Tick)
system.cpu.numCycles                         32607983                       # Number of cpu cycles simulated (Cycle)
system.cpu.numWorkItemsStarted                      0                       # Number of work items this cpu started (Count)
system.cpu.numWorkItemsCompleted                    0                       # Number of work items this cpu completed (Count)
system.cpu.numInsts                           3794559                       # Number of instructions committed (Count)
system.cpu.numOps                             3796499                       # Number of ops (including micro ops) committed (Count)
system.cpu.numDiscardedOps                       2336                       # Number of ops (including micro ops) which were discarded before commit (Count)
system.cpu.numFetchSuspends                         0                       # Number of times Execute suspended instruction fetching (Count)
system.cpu.cpi                               8.593352                       # CPI: cycles per instruction ((Cycle/Count))
system.cpu.ipc                               0.116369                       # IPC: instructions per cycle ((Count/Cycle))
system.cpu.committedInstType_0::No_OpClass           48      0.00%      0.00% # Class of committed instruction (Count)
system.cpu.committedInstType_0::IntAlu        2170676     57.18%     57.18% # Class of committed instruction (Count)
system.cpu.committedInstType_0::IntMult             8      0.00%     57.18% # Class of committed instruction (Count)
system.cpu.committedInstType_0::IntDiv              4      0.00%     57.18% # Class of committed instruction (Count)
system.cpu.committedInstType_0::FloatAdd            0      0.00%     57.18% # Class of committed instruction (Count)
system.cpu.committedInstType_0::FloatCmp            0      0.00%     57.18% # Class of committed instruction (Count)
system.cpu.committedInstType_0::FloatCvt            0      0.00%     57.18% # Class of committed instruction (Count)
system.cpu.committedInstType_0::FloatMult            0      0.00%     57.18% # Class of committed instruction (Count)
system.cpu.committedInstType_0::FloatMultAcc            0      0.00%     57.18% # Class of committed instruction (Count)
system.cpu.committedInstType_0::FloatDiv            0      0.00%     57.18% # Class of committed instruction (Count)
system.cpu.committedInstType_0::FloatMisc           17      0.00%     57.18% # Class of committed instruction (Count)
system.cpu.committedInstType_0::FloatSqrt            0      0.00%     57.18% # Class of committed instruction (Count)
system.cpu.committedInstType_0::SimdAdd             7      0.00%     57.18% # Class of committed instruction (Count)
system.cpu.committedInstType_0::SimdAddAcc            0      0.00%     57.18% # Class of committed instruction (Count)
system.cpu.committedInstType_0::SimdAlu            14      0.00%     57.18% # Class of committed instruction (Count)
system.cpu.committedInstType_0::SimdCmp            38      0.00%     57.18% # Class of committed instruction (Count)
system.cpu.committedInstType_0::SimdCvt             0      0.00%     57.18% # Class of committed instruction (Count)
system.cpu.committedInstType_0::SimdMisc           14      0.00%     57.18% # Class of committed instruction (Count)
system.cpu.committedInstType_0::SimdMult            0      0.00%     57.18% # Class of committed instruction (Count)
system.cpu.committedInstType_0::SimdMultAcc            0      0.00%     57.18% # Class of committed instruction (Count)
system.cpu.committedInstType_0::SimdShift            0      0.00%     57.18% # Class of committed instruction (Count)
system.cpu.committedInstType_0::SimdShiftAcc            0      0.00%     57.18% # Class of committed instruction (Count)
system.cpu.committedInstType_0::SimdDiv             0      0.00%     57.18% # Class of committed instruction (Count)
system.cpu.committedInstType_0::SimdSqrt            0      0.00%     57.18% # Class of committed instruction (Count)
system.cpu.committedInstType_0::SimdFloatAdd            0      0.00%     57.18% # Class of committed instruction (Count)
system.cpu.committedInstType_0::SimdFloatAlu            0      0.00%     57.18% # Class of committed instruction (Count)
system.cpu.committedInstType_0::SimdFloatCmp            0      0.00%     57.18% # Class of committed instruction (Count)
system.cpu.committedInstType_0::SimdFloatCvt            0      0.00%     57.18% # Class of committed instruction (Count)
system.cpu.committedInstType_0::SimdFloatDiv            0      0.00%     57.18% # Class of committed instruction (Count)
system.cpu.committedInstType_0::SimdFloatMisc            0      0.00%     57.18% # Class of committed instruction (Count)
system.cpu.committedInstType_0::SimdFloatMult            0      0.00%     57.18% # Class of committed instruction (Count)
system.cpu.committedInstType_0::SimdFloatMultAcc            0      0.00%     57.18% # Class of committed instruction (Count)
system.cpu.committedInstType_0::SimdFloatSqrt            0      0.00%     57.18% # Class of committed instruction (Count)
system.cpu.committedInstType_0::SimdReduceAdd            0      0.00%     57.18% # Class of committed instruction (Count)
system.cpu.committedInstType_0::SimdReduceAlu            0      0.00%     57.18% # Class of committed instruction (Count)
system.cpu.committedInstType_0::SimdReduceCmp            0      0.00%     57.18% # Class of committed instruction (Count)
system.cpu.committedInstType_0::SimdFloatReduceAdd            0      0.00%     57.18% # Class of committed instruction (Count)
system.cpu.committedInstType_0::SimdFloatReduceCmp            0      0.00%     57.18% # Class of committed instruction (Count)
system.cpu.committedInstType_0::SimdAes             0      0.00%     57.18% # Class of committed instruction (Count)
system.cpu.committedInstType_0::SimdAesMix            0      0.00%     57.18% # Class of committed instruction (Count)
system.cpu.committedInstType_0::SimdSha1Hash            0      0.00%     57.18% # Class of committed instruction (Count)
system.cpu.committedInstType_0::SimdSha1Hash2            0      0.00%     57.18% # Class of committed instruction (Count)
system.cpu.committedInstType_0::SimdSha256Hash            0      0.00%     57.18% # Class of committed instruction (Count)
system.cpu.committedInstType_0::SimdSha256Hash2            0      0.00%     57.18% # Class of committed instruction (Count)
system.cpu.committedInstType_0::SimdShaSigma2            0      0.00%     57.18% # Class of committed instruction (Count)
system.cpu.committedInstType_0::SimdShaSigma3            0      0.00%     57.18% # Class of committed instruction (Count)
system.cpu.committedInstType_0::SimdPredAlu            0      0.00%     57.18% # Class of committed instruction (Count)
system.cpu.committedInstType_0::MemRead       1181367     31.12%     88.30% # Class of committed instruction (Count)
system.cpu.committedInstType_0::MemWrite       444306     11.70%    100.00% # Class of committed instruction (Count)
system.cpu.committedInstType_0::FloatMemRead            0      0.00%    100.00% # Class of committed instruction (Count)
system.cpu.committedInstType_0::FloatMemWrite            0      0.00%    100.00% # Class of committed instruction (Count)
system.cpu.committedInstType_0::IprAccess            0      0.00%    100.00% # Class of committed instruction (Count)
system.cpu.committedInstType_0::InstPrefetch            0      0.00%    100.00% # Class of committed instruction (Count)
system.cpu.committedInstType_0::total         3796499                       # Class of committed instruction (Count)
system.cpu.branchPred.lookups                  282828                       # Number of BP lookups (Count)
system.cpu.branchPred.condPredicted            281250                       # Number of conditional branches predicted (Count)
system.cpu.branchPred.condIncorrect               754                       # Number of conditional branches incorrect (Count)
system.cpu.branchPred.BTBLookups               247854                       # Number of BTB lookups (Count)
system.cpu.branchPred.BTBHits                  246326                       # Number of BTB hits (Count)
system.cpu.branchPred.BTBHitRatio            0.993835                       # BTB Hit Ratio (Ratio)
system.cpu.branchPred.RASUsed                     414                       # Number of times the RAS was used to get a target. (Count)
system.cpu.branchPred.RASIncorrect                 18                       # Number of incorrect RAS predictions. (Count)
system.cpu.branchPred.indirectLookups             134                       # Number of indirect predictor lookups. (Count)
system.cpu.branchPred.indirectHits                  1                       # Number of indirect target hits. (Count)
system.cpu.branchPred.indirectMisses              133                       # Number of indirect misses. (Count)
system.cpu.branchPred.indirectMispredicted           63                       # Number of mispredicted indirect branches. (Count)
system.cpu.dcache.demandHits::cpu.data        1183411                       # number of demand (read+write) hits (Count)
system.cpu.dcache.demandHits::total           1183411                       # number of demand (read+write) hits (Count)
system.cpu.dcache.overallHits::cpu.data       1183411                       # number of overall hits (Count)
system.cpu.dcache.overallHits::total          1183411                       # number of overall hits (Count)
system.cpu.dcache.demandMisses::cpu.data       196781                       # number of demand (read+write) misses (Count)
system.cpu.dcache.demandMisses::total          196781                       # number of demand (read+write) misses (Count)
system.cpu.dcache.overallMisses::cpu.data       196781                       # number of overall misses (Count)
system.cpu.dcache.overallMisses::total         196781                       # number of overall misses (Count)
system.cpu.dcache.demandMissLatency::cpu.data  30105684000                       # number of demand (read+write) miss ticks (Tick)
system.cpu.dcache.demandMissLatency::total  30105684000                       # number of demand (read+write) miss ticks (Tick)
system.cpu.dcache.overallMissLatency::cpu.data  30105684000                       # number of overall miss ticks (Tick)
system.cpu.dcache.overallMissLatency::total  30105684000                       # number of overall miss ticks (Tick)
system.cpu.dcache.demandAccesses::cpu.data      1380192                       # number of demand (read+write) accesses (Count)
system.cpu.dcache.demandAccesses::total       1380192                       # number of demand (read+write) accesses (Count)
system.cpu.dcache.overallAccesses::cpu.data      1380192                       # number of overall (read+write) accesses (Count)
system.cpu.dcache.overallAccesses::total      1380192                       # number of overall (read+write) accesses (Count)
system.cpu.dcache.demandMissRate::cpu.data     0.142575                       # miss rate for demand accesses (Ratio)
system.cpu.dcache.demandMissRate::total      0.142575                       # miss rate for demand accesses (Ratio)
system.cpu.dcache.overallMissRate::cpu.data     0.142575                       # miss rate for overall accesses (Ratio)
system.cpu.dcache.overallMissRate::total     0.142575                       # miss rate for overall accesses (Ratio)
system.cpu.dcache.demandAvgMissLatency::cpu.data 152990.807039                       # average overall miss latency in ticks ((Tick/Count))
system.cpu.dcache.demandAvgMissLatency::total 152990.807039                       # average overall miss latency in ticks ((Tick/Count))
system.cpu.dcache.overallAvgMissLatency::cpu.data 152990.807039                       # average overall miss latency ((Tick/Count))
system.cpu.dcache.overallAvgMissLatency::total 152990.807039                       # average overall miss latency ((Tick/Count))
system.cpu.dcache.blockedCycles::no_mshrs            0                       # number of cycles access was blocked (Cycle)
system.cpu.dcache.blockedCycles::no_targets            0                       # number of cycles access was blocked (Cycle)
system.cpu.dcache.blockedCauses::no_mshrs            0                       # number of times access was blocked (Count)
system.cpu.dcache.blockedCauses::no_targets            0                       # number of times access was blocked (Count)
system.cpu.dcache.avgBlocked::no_mshrs            nan                       # average number of cycles each access was blocked ((Cycle/Count))
system.cpu.dcache.avgBlocked::no_targets          nan                       # average number of cycles each access was blocked ((Cycle/Count))
system.cpu.dcache.writebacks::writebacks       196578                       # number of writebacks (Count)
system.cpu.dcache.writebacks::total            196578                       # number of writebacks (Count)
system.cpu.dcache.demandMshrHits::cpu.data           43                       # number of demand (read+write) MSHR hits (Count)
system.cpu.dcache.demandMshrHits::total            43                       # number of demand (read+write) MSHR hits (Count)
system.cpu.dcache.overallMshrHits::cpu.data           43                       # number of overall MSHR hits (Count)
system.cpu.dcache.overallMshrHits::total           43                       # number of overall MSHR hits (Count)
system.cpu.dcache.demandMshrMisses::cpu.data       196738                       # number of demand (read+write) MSHR misses (Count)
system.cpu.dcache.demandMshrMisses::total       196738                       # number of demand (read+write) MSHR misses (Count)
system.cpu.dcache.overallMshrMisses::cpu.data       196738                       # number of overall MSHR misses (Count)
system.cpu.dcache.overallMshrMisses::total       196738                       # number of overall MSHR misses (Count)
system.cpu.dcache.demandMshrMissLatency::cpu.data  29904546500                       # number of demand (read+write) MSHR miss ticks (Tick)
system.cpu.dcache.demandMshrMissLatency::total  29904546500                       # number of demand (read+write) MSHR miss ticks (Tick)
system.cpu.dcache.overallMshrMissLatency::cpu.data  29904546500                       # number of overall MSHR miss ticks (Tick)
system.cpu.dcache.overallMshrMissLatency::total  29904546500                       # number of overall MSHR miss ticks (Tick)
system.cpu.dcache.demandMshrMissRate::cpu.data     0.142544                       # mshr miss ratio for demand accesses (Ratio)
system.cpu.dcache.demandMshrMissRate::total     0.142544                       # mshr miss ratio for demand accesses (Ratio)
system.cpu.dcache.overallMshrMissRate::cpu.data     0.142544                       # mshr miss ratio for overall accesses (Ratio)
system.cpu.dcache.overallMshrMissRate::total     0.142544                       # mshr miss ratio for overall accesses (Ratio)
system.cpu.dcache.demandAvgMshrMissLatency::cpu.data 152001.883215                       # average overall mshr miss latency ((Tick/Count))
system.cpu.dcache.demandAvgMshrMissLatency::total 152001.883215                       # average overall mshr miss latency ((Tick/Count))
system.cpu.dcache.overallAvgMshrMissLatency::cpu.data 152001.883215                       # average overall mshr miss latency ((Tick/Count))
system.cpu.dcache.overallAvgMshrMissLatency::total 152001.883215                       # average overall mshr miss latency ((Tick/Count))
system.cpu.dcache.replacements                 196599                       # number of replacements (Count)
system.cpu.dcache.LoadLockedReq.hits::cpu.data            3                       # number of LoadLockedReq hits (Count)
system.cpu.dcache.LoadLockedReq.hits::total            3                       # number of LoadLockedReq hits (Count)
system.cpu.dcache.LoadLockedReq.misses::cpu.data            1                       # number of LoadLockedReq misses (Count)
system.cpu.dcache.LoadLockedReq.misses::total            1                       # number of LoadLockedReq misses (Count)
system.cpu.dcache.LoadLockedReq.missLatency::cpu.data       101500                       # number of LoadLockedReq miss ticks (Tick)
system.cpu.dcache.LoadLockedReq.missLatency::total       101500                       # number of LoadLockedReq miss ticks (Tick)
system.cpu.dcache.LoadLockedReq.accesses::cpu.data            4                       # number of LoadLockedReq accesses(hits+misses) (Count)
system.cpu.dcache.LoadLockedReq.accesses::total            4                       # number of LoadLockedReq accesses(hits+misses) (Count)
system.cpu.dcache.LoadLockedReq.missRate::cpu.data     0.250000                       # miss rate for LoadLockedReq accesses (Ratio)
system.cpu.dcache.LoadLockedReq.missRate::total     0.250000                       # miss rate for LoadLockedReq accesses (Ratio)
system.cpu.dcache.LoadLockedReq.avgMissLatency::cpu.data       101500                       # average LoadLockedReq miss latency ((Tick/Count))
system.cpu.dcache.LoadLockedReq.avgMissLatency::total       101500                       # average LoadLockedReq miss latency ((Tick/Count))
system.cpu.dcache.LoadLockedReq.mshrMisses::cpu.data            1                       # number of LoadLockedReq MSHR misses (Count)
system.cpu.dcache.LoadLockedReq.mshrMisses::total            1                       # number of LoadLockedReq MSHR misses (Count)
system.cpu.dcache.LoadLockedReq.mshrMissLatency::cpu.data       100500                       # number of LoadLockedReq MSHR miss ticks (Tick)
system.cpu.dcache.LoadLockedReq.mshrMissLatency::total       100500                       # number of LoadLockedReq MSHR miss ticks (Tick)
system.cpu.dcache.LoadLockedReq.mshrMissRate::cpu.data     0.250000                       # mshr miss rate for LoadLockedReq accesses (Ratio)
system.cpu.dcache.LoadLockedReq.mshrMissRate::total     0.250000                       # mshr miss rate for LoadLockedReq accesses (Ratio)
system.cpu.dcache.LoadLockedReq.avgMshrMissLatency::cpu.data       100500                       # average LoadLockedReq mshr miss latency ((Tick/Count))
system.cpu.dcache.LoadLockedReq.avgMshrMissLatency::total       100500                       # average LoadLockedReq mshr miss latency ((Tick/Count))
system.cpu.dcache.ReadReq.hits::cpu.data       985000                       # number of ReadReq hits (Count)
system.cpu.dcache.ReadReq.hits::total          985000                       # number of ReadReq hits (Count)
system.cpu.dcache.ReadReq.misses::cpu.data           80                       # number of ReadReq misses (Count)
system.cpu.dcache.ReadReq.misses::total            80                       # number of ReadReq misses (Count)
system.cpu.dcache.ReadReq.missLatency::cpu.data      8554500                       # number of ReadReq miss ticks (Tick)
system.cpu.dcache.ReadReq.missLatency::total      8554500                       # number of ReadReq miss ticks (Tick)
system.cpu.dcache.ReadReq.accesses::cpu.data       985080                       # number of ReadReq accesses(hits+misses) (Count)
system.cpu.dcache.ReadReq.accesses::total       985080                       # number of ReadReq accesses(hits+misses) (Count)
system.cpu.dcache.ReadReq.missRate::cpu.data     0.000081                       # miss rate for ReadReq accesses (Ratio)
system.cpu.dcache.ReadReq.missRate::total     0.000081                       # miss rate for ReadReq accesses (Ratio)
system.cpu.dcache.ReadReq.avgMissLatency::cpu.data 106931.250000                       # average ReadReq miss latency ((Tick/Count))
system.cpu.dcache.ReadReq.avgMissLatency::total 106931.250000                       # average ReadReq miss latency ((Tick/Count))
system.cpu.dcache.ReadReq.mshrHits::cpu.data            4                       # number of ReadReq MSHR hits (Count)
system.cpu.dcache.ReadReq.mshrHits::total            4                       # number of ReadReq MSHR hits (Count)
system.cpu.dcache.ReadReq.mshrMisses::cpu.data           76                       # number of ReadReq MSHR misses (Count)
system.cpu.dcache.ReadReq.mshrMisses::total           76                       # number of ReadReq MSHR misses (Count)
system.cpu.dcache.ReadReq.mshrMissLatency::cpu.data      8180000                       # number of ReadReq MSHR miss ticks (Tick)
system.cpu.dcache.ReadReq.mshrMissLatency::total      8180000                       # number of ReadReq MSHR miss ticks (Tick)
system.cpu.dcache.ReadReq.mshrMissRate::cpu.data     0.000077                       # mshr miss rate for ReadReq accesses (Ratio)
system.cpu.dcache.ReadReq.mshrMissRate::total     0.000077                       # mshr miss rate for ReadReq accesses (Ratio)
system.cpu.dcache.ReadReq.avgMshrMissLatency::cpu.data 107631.578947                       # average ReadReq mshr miss latency ((Tick/Count))
system.cpu.dcache.ReadReq.avgMshrMissLatency::total 107631.578947                       # average ReadReq mshr miss latency ((Tick/Count))
system.cpu.dcache.StoreCondReq.hits::cpu.data            4                       # number of StoreCondReq hits (Count)
system.cpu.dcache.StoreCondReq.hits::total            4                       # number of StoreCondReq hits (Count)
system.cpu.dcache.StoreCondReq.accesses::cpu.data            4                       # number of StoreCondReq accesses(hits+misses) (Count)
system.cpu.dcache.StoreCondReq.accesses::total            4                       # number of StoreCondReq accesses(hits+misses) (Count)
system.cpu.dcache.SwapReq.hits::cpu.data           34                       # number of SwapReq hits (Count)
system.cpu.dcache.SwapReq.hits::total              34                       # number of SwapReq hits (Count)
system.cpu.dcache.SwapReq.accesses::cpu.data           34                       # number of SwapReq accesses(hits+misses) (Count)
system.cpu.dcache.SwapReq.accesses::total           34                       # number of SwapReq accesses(hits+misses) (Count)
system.cpu.dcache.WriteReq.hits::cpu.data       198411                       # number of WriteReq hits (Count)
system.cpu.dcache.WriteReq.hits::total         198411                       # number of WriteReq hits (Count)
system.cpu.dcache.WriteReq.misses::cpu.data       196701                       # number of WriteReq misses (Count)
system.cpu.dcache.WriteReq.misses::total       196701                       # number of WriteReq misses (Count)
system.cpu.dcache.WriteReq.missLatency::cpu.data  30097129500                       # number of WriteReq miss ticks (Tick)
system.cpu.dcache.WriteReq.missLatency::total  30097129500                       # number of WriteReq miss ticks (Tick)
system.cpu.dcache.WriteReq.accesses::cpu.data       395112                       # number of WriteReq accesses(hits+misses) (Count)
system.cpu.dcache.WriteReq.accesses::total       395112                       # number of WriteReq accesses(hits+misses) (Count)
system.cpu.dcache.WriteReq.missRate::cpu.data     0.497836                       # miss rate for WriteReq accesses (Ratio)
system.cpu.dcache.WriteReq.missRate::total     0.497836                       # miss rate for WriteReq accesses (Ratio)
system.cpu.dcache.WriteReq.avgMissLatency::cpu.data 153009.539860                       # average WriteReq miss latency ((Tick/Count))
system.cpu.dcache.WriteReq.avgMissLatency::total 153009.539860                       # average WriteReq miss latency ((Tick/Count))
system.cpu.dcache.WriteReq.mshrHits::cpu.data           39                       # number of WriteReq MSHR hits (Count)
system.cpu.dcache.WriteReq.mshrHits::total           39                       # number of WriteReq MSHR hits (Count)
system.cpu.dcache.WriteReq.mshrMisses::cpu.data       196662                       # number of WriteReq MSHR misses (Count)
system.cpu.dcache.WriteReq.mshrMisses::total       196662                       # number of WriteReq MSHR misses (Count)
system.cpu.dcache.WriteReq.mshrMissLatency::cpu.data  29896366500                       # number of WriteReq MSHR miss ticks (Tick)
system.cpu.dcache.WriteReq.mshrMissLatency::total  29896366500                       # number of WriteReq MSHR miss ticks (Tick)
system.cpu.dcache.WriteReq.mshrMissRate::cpu.data     0.497737                       # mshr miss rate for WriteReq accesses (Ratio)
system.cpu.dcache.WriteReq.mshrMissRate::total     0.497737                       # mshr miss rate for WriteReq accesses (Ratio)
system.cpu.dcache.WriteReq.avgMshrMissLatency::cpu.data 152019.030113                       # average WriteReq mshr miss latency ((Tick/Count))
system.cpu.dcache.WriteReq.avgMshrMissLatency::total 152019.030113                       # average WriteReq mshr miss latency ((Tick/Count))
system.cpu.dcache.power_state.pwrStateResidencyTicks::UNDEFINED  16303991500                       # Cumulative time (in ticks) in various power states (Tick)
system.cpu.dcache.tags.tagsInUse           127.867375                       # Average ticks per tags in use ((Tick/Count))
system.cpu.dcache.tags.totalRefs              1380191                       # Total number of references to valid blocks. (Count)
system.cpu.dcache.tags.sampledRefs             196739                       # Sample count of references to valid blocks. (Count)
system.cpu.dcache.tags.avgRefs               7.015340                       # Average number of references to valid blocks. ((Count/Count))
system.cpu.dcache.tags.warmupTick              211500                       # The tick when the warmup percentage was hit. (Tick)
system.cpu.dcache.tags.occupancies::cpu.data   127.867375                       # Average occupied blocks per tick, per requestor ((Count/Tick))
system.cpu.dcache.tags.avgOccs::cpu.data     0.499482                       # Average percentage of cache occupancy ((Ratio/Tick))
system.cpu.dcache.tags.avgOccs::total        0.499482                       # Average percentage of cache occupancy ((Ratio/Tick))
system.cpu.dcache.tags.occupanciesTaskId::1024          140                       # Occupied blocks per task id (Count)
system.cpu.dcache.tags.ageTaskId_1024::0           17                       # Occupied blocks per task id, per block age (Count)
system.cpu.dcache.tags.ageTaskId_1024::1           62                       # Occupied blocks per task id, per block age (Count)
system.cpu.dcache.tags.ageTaskId_1024::4           61                       # Occupied blocks per task id, per block age (Count)
system.cpu.dcache.tags.ratioOccsTaskId::1024     0.546875                       # Ratio of occupied blocks and all blocks, per task id (Ratio)
system.cpu.dcache.tags.tagAccesses            2957207                       # Number of tag accesses (Count)
system.cpu.dcache.tags.dataAccesses           2957207                       # Number of data accesses (Count)
system.cpu.dcache.tags.power_state.pwrStateResidencyTicks::UNDEFINED  16303991500                       # Cumulative time (in ticks) in various power states (Tick)
system.cpu.fetch2.intInstructions             2486057                       # Number of integer instructions successfully decoded (Count)
system.cpu.fetch2.fpInstructions                    0                       # Number of floating point instructions successfully decoded (Count)
system.cpu.fetch2.vecInstructions                 147                       # Number of SIMD instructions successfully decoded (Count)
system.cpu.fetch2.loadInstructions            1493773                       # Number of memory load instructions successfully decoded (Count)
system.cpu.fetch2.storeInstructions            541933                       # Number of memory store instructions successfully decoded (Count)
system.cpu.fetch2.amoInstructions                  39                       # Number of memory atomic instructions successfully decoded (Count)
system.cpu.icache.demandHits::cpu.inst        1084740                       # number of demand (read+write) hits (Count)
system.cpu.icache.demandHits::total           1084740                       # number of demand (read+write) hits (Count)
system.cpu.icache.overallHits::cpu.inst       1084740                       # number of overall hits (Count)
system.cpu.icache.overallHits::total          1084740                       # number of overall hits (Count)
system.cpu.icache.demandMisses::cpu.inst          410                       # number of demand (read+write) misses (Count)
system.cpu.icache.demandMisses::total             410                       # number of demand (read+write) misses (Count)
system.cpu.icache.overallMisses::cpu.inst          410                       # number of overall misses (Count)
system.cpu.icache.overallMisses::total            410                       # number of overall misses (Count)
system.cpu.icache.demandMissLatency::cpu.inst     32494000                       # number of demand (read+write) miss ticks (Tick)
system.cpu.icache.demandMissLatency::total     32494000                       # number of demand (read+write) miss ticks (Tick)
system.cpu.icache.overallMissLatency::cpu.inst     32494000                       # number of overall miss ticks (Tick)
system.cpu.icache.overallMissLatency::total     32494000                       # number of overall miss ticks (Tick)
system.cpu.icache.demandAccesses::cpu.inst      1085150                       # number of demand (read+write) accesses (Count)
system.cpu.icache.demandAccesses::total       1085150                       # number of demand (read+write) accesses (Count)
system.cpu.icache.overallAccesses::cpu.inst      1085150                       # number of overall (read+write) accesses (Count)
system.cpu.icache.overallAccesses::total      1085150                       # number of overall (read+write) accesses (Count)
system.cpu.icache.demandMissRate::cpu.inst     0.000378                       # miss rate for demand accesses (Ratio)
system.cpu.icache.demandMissRate::total      0.000378                       # miss rate for demand accesses (Ratio)
system.cpu.icache.overallMissRate::cpu.inst     0.000378                       # miss rate for overall accesses (Ratio)
system.cpu.icache.overallMissRate::total     0.000378                       # miss rate for overall accesses (Ratio)
system.cpu.icache.demandAvgMissLatency::cpu.inst 79253.658537                       # average overall miss latency in ticks ((Tick/Count))
system.cpu.icache.demandAvgMissLatency::total 79253.658537                       # average overall miss latency in ticks ((Tick/Count))
system.cpu.icache.overallAvgMissLatency::cpu.inst 79253.658537                       # average overall miss latency ((Tick/Count))
system.cpu.icache.overallAvgMissLatency::total 79253.658537                       # average overall miss latency ((Tick/Count))
system.cpu.icache.blockedCycles::no_mshrs            0                       # number of cycles access was blocked (Cycle)
system.cpu.icache.blockedCycles::no_targets            0                       # number of cycles access was blocked (Cycle)
system.cpu.icache.blockedCauses::no_mshrs            0                       # number of times access was blocked (Count)
system.cpu.icache.blockedCauses::no_targets            0                       # number of times access was blocked (Count)
system.cpu.icache.avgBlocked::no_mshrs            nan                       # average number of cycles each access was blocked ((Cycle/Count))
system.cpu.icache.avgBlocked::no_targets          nan                       # average number of cycles each access was blocked ((Cycle/Count))
system.cpu.icache.writebacks::writebacks          282                       # number of writebacks (Count)
system.cpu.icache.writebacks::total               282                       # number of writebacks (Count)
system.cpu.icache.demandMshrMisses::cpu.inst          410                       # number of demand (read+write) MSHR misses (Count)
system.cpu.icache.demandMshrMisses::total          410                       # number of demand (read+write) MSHR misses (Count)
system.cpu.icache.overallMshrMisses::cpu.inst          410                       # number of overall MSHR misses (Count)
system.cpu.icache.overallMshrMisses::total          410                       # number of overall MSHR misses (Count)
system.cpu.icache.demandMshrMissLatency::cpu.inst     32085000                       # number of demand (read+write) MSHR miss ticks (Tick)
system.cpu.icache.demandMshrMissLatency::total     32085000                       # number of demand (read+write) MSHR miss ticks (Tick)
system.cpu.icache.overallMshrMissLatency::cpu.inst     32085000                       # number of overall MSHR miss ticks (Tick)
system.cpu.icache.overallMshrMissLatency::total     32085000                       # number of overall MSHR miss ticks (Tick)
system.cpu.icache.demandMshrMissRate::cpu.inst     0.000378                       # mshr miss ratio for demand accesses (Ratio)
system.cpu.icache.demandMshrMissRate::total     0.000378                       # mshr miss ratio for demand accesses (Ratio)
system.cpu.icache.overallMshrMissRate::cpu.inst     0.000378                       # mshr miss ratio for overall accesses (Ratio)
system.cpu.icache.overallMshrMissRate::total     0.000378                       # mshr miss ratio for overall accesses (Ratio)
system.cpu.icache.demandAvgMshrMissLatency::cpu.inst 78256.097561                       # average overall mshr miss latency ((Tick/Count))
system.cpu.icache.demandAvgMshrMissLatency::total 78256.097561                       # average overall mshr miss latency ((Tick/Count))
system.cpu.icache.overallAvgMshrMissLatency::cpu.inst 78256.097561                       # average overall mshr miss latency ((Tick/Count))
system.cpu.icache.overallAvgMshrMissLatency::total 78256.097561                       # average overall mshr miss latency ((Tick/Count))
system.cpu.icache.replacements                    282                       # number of replacements (Count)
system.cpu.icache.ReadReq.hits::cpu.inst      1084740                       # number of ReadReq hits (Count)
system.cpu.icache.ReadReq.hits::total         1084740                       # number of ReadReq hits (Count)
system.cpu.icache.ReadReq.misses::cpu.inst          410                       # number of ReadReq misses (Count)
system.cpu.icache.ReadReq.misses::total           410                       # number of ReadReq misses (Count)
system.cpu.icache.ReadReq.missLatency::cpu.inst     32494000                       # number of ReadReq miss ticks (Tick)
system.cpu.icache.ReadReq.missLatency::total     32494000                       # number of ReadReq miss ticks (Tick)
system.cpu.icache.ReadReq.accesses::cpu.inst      1085150                       # number of ReadReq accesses(hits+misses) (Count)
system.cpu.icache.ReadReq.accesses::total      1085150                       # number of ReadReq accesses(hits+misses) (Count)
system.cpu.icache.ReadReq.missRate::cpu.inst     0.000378                       # miss rate for ReadReq accesses (Ratio)
system.cpu.icache.ReadReq.missRate::total     0.000378                       # miss rate for ReadReq accesses (Ratio)
system.cpu.icache.ReadReq.avgMissLatency::cpu.inst 79253.658537                       # average ReadReq miss latency ((Tick/Count))
system.cpu.icache.ReadReq.avgMissLatency::total 79253.658537                       # average ReadReq miss latency ((Tick/Count))
system.cpu.icache.ReadReq.mshrMisses::cpu.inst          410                       # number of ReadReq MSHR misses (Count)
system.cpu.icache.ReadReq.mshrMisses::total          410                       # number of ReadReq MSHR misses (Count)
system.cpu.icache.ReadReq.mshrMissLatency::cpu.inst     32085000                       # number of ReadReq MSHR miss ticks (Tick)
system.cpu.icache.ReadReq.mshrMissLatency::total     32085000                       # number of ReadReq MSHR miss ticks (Tick)
system.cpu.icache.ReadReq.mshrMissRate::cpu.inst     0.000378                       # mshr miss rate for ReadReq accesses (Ratio)
system.cpu.icache.ReadReq.mshrMissRate::total     0.000378                       # mshr miss rate for ReadReq accesses (Ratio)
system.cpu.icache.ReadReq.avgMshrMissLatency::cpu.inst 78256.097561                       # average ReadReq mshr miss latency ((Tick/Count))
system.cpu.icache.ReadReq.avgMshrMissLatency::total 78256.097561                       # average ReadReq mshr miss latency ((Tick/Count))
system.cpu.icache.power_state.pwrStateResidencyTicks::UNDEFINED  16303991500                       # Cumulative time (in ticks) in various power states (Tick)
system.cpu.icache.tags.tagsInUse           108.939301                       # Average ticks per tags in use ((Tick/Count))
system.cpu.icache.tags.totalRefs              1085149                       # Total number of references to valid blocks. (Count)
system.cpu.icache.tags.sampledRefs                409                       # Sample count of references to valid blocks. (Count)
system.cpu.icache.tags.avgRefs            2653.176039                       # Average number of references to valid blocks. ((Count/Count))
system.cpu.icache.tags.warmupTick              102500                       # The tick when the warmup percentage was hit. (Tick)
system.cpu.icache.tags.occupancies::cpu.inst   108.939301                       # Average occupied blocks per tick, per requestor ((Count/Tick))
system.cpu.icache.tags.avgOccs::cpu.inst     0.851088                       # Average percentage of cache occupancy ((Ratio/Tick))
system.cpu.icache.tags.avgOccs::total        0.851088                       # Average percentage of cache occupancy ((Ratio/Tick))
system.cpu.icache.tags.occupanciesTaskId::1024          127                       # Occupied blocks per task id (Count)
system.cpu.icache.tags.ageTaskId_1024::0           74                       # Occupied blocks per task id, per block age (Count)
system.cpu.icache.tags.ageTaskId_1024::1           23                       # Occupied blocks per task id, per block age (Count)
system.cpu.icache.tags.ageTaskId_1024::4           30                       # Occupied blocks per task id, per block age (Count)
system.cpu.icache.tags.ratioOccsTaskId::1024     0.992188                       # Ratio of occupied blocks and all blocks, per task id (Ratio)
system.cpu.icache.tags.tagAccesses            2170709                       # Number of tag accesses (Count)
system.cpu.icache.tags.dataAccesses           2170709                       # Number of data accesses (Count)
system.cpu.icache.tags.power_state.pwrStateResidencyTicks::UNDEFINED  16303991500                       # Cumulative time (in ticks) in various power states (Tick)
system.cpu.mmu.alignFaults                          0                       # Number of MMU faults due to alignment restrictions (Count)
system.cpu.mmu.prefetchFaults                       0                       # Number of MMU faults due to prefetch (Count)
system.cpu.mmu.domainFaults                         0                       # Number of MMU faults due to domain restrictions (Count)
system.cpu.mmu.permsFaults                          0                       # Number of MMU faults due to permissions restrictions (Count)
system.cpu.mmu.dtb.readHits                         0                       # Read hits (Count)
system.cpu.mmu.dtb.readMisses                       0                       # Read misses (Count)
system.cpu.mmu.dtb.writeHits                        0                       # Write hits (Count)
system.cpu.mmu.dtb.writeMisses                      0                       # Write misses (Count)
system.cpu.mmu.dtb.inserts                          0                       # Number of times an entry is inserted into the TLB (Count)
system.cpu.mmu.dtb.flushTlb                         0                       # Number of times complete TLB was flushed (Count)
system.cpu.mmu.dtb.flushTlbMva                      0                       # Number of times TLB was flushed by MVA (Count)
system.cpu.mmu.dtb.flushTlbMvaAsid                  0                       # Number of times TLB was flushed by MVA & ASID (Count)
system.cpu.mmu.dtb.flushTlbAsid                     0                       # Number of times TLB was flushed by ASID (Count)
system.cpu.mmu.dtb.flushedEntries                   0                       # Number of entries that have been flushed from TLB (Count)
system.cpu.mmu.dtb.readAccesses                     0                       # Read accesses (Count)
system.cpu.mmu.dtb.writeAccesses                    0                       # Write accesses (Count)
system.cpu.mmu.dtb.hits                             0                       # Total TLB (inst and data) hits (Count)
system.cpu.mmu.dtb.misses                           0                       # Total TLB (inst and data) misses (Count)
system.cpu.mmu.dtb.accesses                         0                       # Total TLB (inst and data) accesses (Count)
system.cpu.mmu.dtb_walker.walks                     0                       # Table walker walks requested (Count)
system.cpu.mmu.dtb_walker.requestOrigin_Requested::Data            0                       # Table walker requests started/completed, data/inst (Count)
system.cpu.mmu.dtb_walker.requestOrigin_Requested::Inst            0                       # Table walker requests started/completed, data/inst (Count)
system.cpu.mmu.dtb_walker.requestOrigin_Requested::total            0                       # Table walker requests started/completed, data/inst (Count)
system.cpu.mmu.dtb_walker.requestOrigin_Completed::Data            0                       # Table walker requests started/completed, data/inst (Count)
system.cpu.mmu.dtb_walker.requestOrigin_Completed::Inst            0                       # Table walker requests started/completed, data/inst (Count)
system.cpu.mmu.dtb_walker.requestOrigin_Completed::total            0                       # Table walker requests started/completed, data/inst (Count)
system.cpu.mmu.dtb_walker.requestOrigin::total            0                       # Table walker requests started/completed, data/inst (Count)
system.cpu.mmu.dtb_walker.power_state.pwrStateResidencyTicks::UNDEFINED  16303991500                       # Cumulative time (in ticks) in various power states (Tick)
system.cpu.mmu.itb.instHits                         0                       # Inst hits (Count)
system.cpu.mmu.itb.instMisses                       0                       # Inst misses (Count)
system.cpu.mmu.itb.inserts                          0                       # Number of times an entry is inserted into the TLB (Count)
system.cpu.mmu.itb.flushTlb                         0                       # Number of times complete TLB was flushed (Count)
system.cpu.mmu.itb.flushTlbMva                      0                       # Number of times TLB was flushed by MVA (Count)
system.cpu.mmu.itb.flushTlbMvaAsid                  0                       # Number of times TLB was flushed by MVA & ASID (Count)
system.cpu.mmu.itb.flushTlbAsid                     0                       # Number of times TLB was flushed by ASID (Count)
system.cpu.mmu.itb.flushedEntries                   0                       # Number of entries that have been flushed from TLB (Count)
system.cpu.mmu.itb.instAccesses                     0                       # Inst accesses (Count)
system.cpu.mmu.itb.hits                             0                       # Total TLB (inst and data) hits (Count)
system.cpu.mmu.itb.misses                           0                       # Total TLB (inst and data) misses (Count)
system.cpu.mmu.itb.accesses                         0                       # Total TLB (inst and data) accesses (Count)
system.cpu.mmu.itb_walker.walks                     0                       # Table walker walks requested (Count)
system.cpu.mmu.itb_walker.requestOrigin_Requested::Data            0                       # Table walker requests started/completed, data/inst (Count)
system.cpu.mmu.itb_walker.requestOrigin_Requested::Inst            0                       # Table walker requests started/completed, data/inst (Count)
system.cpu.mmu.itb_walker.requestOrigin_Requested::total            0                       # Table walker requests started/completed, data/inst (Count)
system.cpu.mmu.itb_walker.requestOrigin_Completed::Data            0                       # Table walker requests started/completed, data/inst (Count)
system.cpu.mmu.itb_walker.requestOrigin_Completed::Inst            0                       # Table walker requests started/completed, data/inst (Count)
system.cpu.mmu.itb_walker.requestOrigin_Completed::total            0                       # Table walker requests started/completed, data/inst (Count)
system.cpu.mmu.itb_walker.requestOrigin::total            0                       # Table walker requests started/completed, data/inst (Count)
system.cpu.mmu.itb_walker.power_state.pwrStateResidencyTicks::UNDEFINED  16303991500                       # Cumulative time (in ticks) in various power states (Tick)
system.cpu.mmu.l2_shared.instHits                   0                       # Inst hits (Count)
system.cpu.mmu.l2_shared.instMisses                 0                       # Inst misses (Count)
system.cpu.mmu.l2_shared.inserts                    0                       # Number of times an entry is inserted into the TLB (Count)
system.cpu.mmu.l2_shared.flushTlb                   0                       # Number of times complete TLB was flushed (Count)
system.cpu.mmu.l2_shared.flushTlbMva                0                       # Number of times TLB was flushed by MVA (Count)
system.cpu.mmu.l2_shared.flushTlbMvaAsid            0                       # Number of times TLB was flushed by MVA & ASID (Count)
system.cpu.mmu.l2_shared.flushTlbAsid               0                       # Number of times TLB was flushed by ASID (Count)
system.cpu.mmu.l2_shared.flushedEntries             0                       # Number of entries that have been flushed from TLB (Count)
system.cpu.mmu.l2_shared.instAccesses               0                       # Inst accesses (Count)
system.cpu.mmu.l2_shared.hits                       0                       # Total TLB (inst and data) hits (Count)
system.cpu.mmu.l2_shared.misses                     0                       # Total TLB (inst and data) misses (Count)
system.cpu.mmu.l2_shared.accesses                   0                       # Total TLB (inst and data) accesses (Count)
system.cpu.mmu.stage2_dtb.readHits                  0                       # Read hits (Count)
system.cpu.mmu.stage2_dtb.readMisses                0                       # Read misses (Count)
system.cpu.mmu.stage2_dtb.writeHits                 0                       # Write hits (Count)
system.cpu.mmu.stage2_dtb.writeMisses               0                       # Write misses (Count)
system.cpu.mmu.stage2_dtb.inserts                   0                       # Number of times an entry is inserted into the TLB (Count)
system.cpu.mmu.stage2_dtb.flushTlb                  0                       # Number of times complete TLB was flushed (Count)
system.cpu.mmu.stage2_dtb.flushTlbMva               0                       # Number of times TLB was flushed by MVA (Count)
system.cpu.mmu.stage2_dtb.flushTlbMvaAsid            0                       # Number of times TLB was flushed by MVA & ASID (Count)
system.cpu.mmu.stage2_dtb.flushTlbAsid              0                       # Number of times TLB was flushed by ASID (Count)
system.cpu.mmu.stage2_dtb.flushedEntries            0                       # Number of entries that have been flushed from TLB (Count)
system.cpu.mmu.stage2_dtb.readAccesses              0                       # Read accesses (Count)
system.cpu.mmu.stage2_dtb.writeAccesses             0                       # Write accesses (Count)
system.cpu.mmu.stage2_dtb.hits                      0                       # Total TLB (inst and data) hits (Count)
system.cpu.mmu.stage2_dtb.misses                    0                       # Total TLB (inst and data) misses (Count)
system.cpu.mmu.stage2_dtb.accesses                  0                       # Total TLB (inst and data) accesses (Count)
system.cpu.mmu.stage2_dtb_walker.walks              0                       # Table walker walks requested (Count)
system.cpu.mmu.stage2_dtb_walker.requestOrigin_Requested::Data            0                       # Table walker requests started/completed, data/inst (Count)
system.cpu.mmu.stage2_dtb_walker.requestOrigin_Requested::Inst            0                       # Table walker requests started/completed, data/inst (Count)
system.cpu.mmu.stage2_dtb_walker.requestOrigin_Requested::total            0                       # Table walker requests started/completed, data/inst (Count)
system.cpu.mmu.stage2_dtb_walker.requestOrigin_Completed::Data            0                       # Table walker requests started/completed, data/inst (Count)
system.cpu.mmu.stage2_dtb_walker.requestOrigin_Completed::Inst            0                       # Table walker requests started/completed, data/inst (Count)
system.cpu.mmu.stage2_dtb_walker.requestOrigin_Completed::total            0                       # Table walker requests started/completed, data/inst (Count)
system.cpu.mmu.stage2_dtb_walker.requestOrigin::total            0                       # Table walker requests started/completed, data/inst (Count)
system.cpu.mmu.stage2_dtb_walker.power_state.pwrStateResidencyTicks::UNDEFINED  16303991500                       # Cumulative time (in ticks) in various power states (Tick)
system.cpu.mmu.stage2_itb.instHits                  0                       # Inst hits (Count)
system.cpu.mmu.stage2_itb.instMisses                0                       # Inst misses (Count)
system.cpu.mmu.stage2_itb.inserts                   0                       # Number of times an entry is inserted into the TLB (Count)
system.cpu.mmu.stage2_itb.flushTlb                  0                       # Number of times complete TLB was flushed (Count)
system.cpu.mmu.stage2_itb.flushTlbMva               0                       # Number of times TLB was flushed by MVA (Count)
system.cpu.mmu.stage2_itb.flushTlbMvaAsid            0                       # Number of times TLB was flushed by MVA & ASID (Count)
system.cpu.mmu.stage2_itb.flushTlbAsid              0                       # Number of times TLB was flushed by ASID (Count)
system.cpu.mmu.stage2_itb.flushedEntries            0                       # Number of entries that have been flushed from TLB (Count)
system.cpu.mmu.stage2_itb.instAccesses              0                       # Inst accesses (Count)
system.cpu.mmu.stage2_itb.hits                      0                       # Total TLB (inst and data) hits (Count)
system.cpu.mmu.stage2_itb.misses                    0                       # Total TLB (inst and data) misses (Count)
system.cpu.mmu.stage2_itb.accesses                  0                       # Total TLB (inst and data) accesses (Count)
system.cpu.mmu.stage2_itb_walker.walks              0                       # Table walker walks requested (Count)
system.cpu.mmu.stage2_itb_walker.requestOrigin_Requested::Data            0                       # Table walker requests started/completed, data/inst (Count)
system.cpu.mmu.stage2_itb_walker.requestOrigin_Requested::Inst            0                       # Table walker requests started/completed, data/inst (Count)
system.cpu.mmu.stage2_itb_walker.requestOrigin_Requested::total            0                       # Table walker requests started/completed, data/inst (Count)
system.cpu.mmu.stage2_itb_walker.requestOrigin_Completed::Data            0                       # Table walker requests started/completed, data/inst (Count)
system.cpu.mmu.stage2_itb_walker.requestOrigin_Completed::Inst            0                       # Table walker requests started/completed, data/inst (Count)
system.cpu.mmu.stage2_itb_walker.requestOrigin_Completed::total            0                       # Table walker requests started/completed, data/inst (Count)
system.cpu.mmu.stage2_itb_walker.requestOrigin::total            0                       # Table walker requests started/completed, data/inst (Count)
system.cpu.mmu.stage2_itb_walker.power_state.pwrStateResidencyTicks::UNDEFINED  16303991500                       # Cumulative time (in ticks) in various power states (Tick)
system.cpu.power_state.pwrStateResidencyTicks::ON  16303991500                       # Cumulative time (in ticks) in various power states (Tick)
system.cpu.thread_0.numInsts                  3794559                       # Number of Instructions committed (Count)
system.cpu.thread_0.numOps                    3796499                       # Number of Ops committed (Count)
system.cpu.thread_0.numMemRefs                      0                       # Number of Memory References (Count)
system.cpu.workload.numSyscalls                    20                       # Number of system calls (Count)
system.cpu_clk_domain.clock                       500                       # Clock period in ticks (Tick)
system.cpu_voltage_domain.voltage                   1                       # Voltage in Volts (Volt)
system.l2.demandHits::cpu.inst                    106                       # number of demand (read+write) hits (Count)
system.l2.demandHits::cpu.data                      2                       # number of demand (read+write) hits (Count)
system.l2.demandHits::total                       108                       # number of demand (read+write) hits (Count)
system.l2.overallHits::cpu.inst                   106                       # number of overall hits (Count)
system.l2.overallHits::cpu.data                     2                       # number of overall hits (Count)
system.l2.overallHits::total                      108                       # number of overall hits (Count)
system.l2.demandMisses::cpu.inst                  304                       # number of demand (read+write) misses (Count)
system.l2.demandMisses::cpu.data               196737                       # number of demand (read+write) misses (Count)
system.l2.demandMisses::total                  197041                       # number of demand (read+write) misses (Count)
system.l2.overallMisses::cpu.inst                 304                       # number of overall misses (Count)
system.l2.overallMisses::cpu.data              196737                       # number of overall misses (Count)
system.l2.overallMisses::total                 197041                       # number of overall misses (Count)
system.l2.demandMissLatency::cpu.inst        30039500                       # number of demand (read+write) miss ticks (Tick)
system.l2.demandMissLatency::cpu.data     29609516000                       # number of demand (read+write) miss ticks (Tick)
system.l2.demandMissLatency::total        29639555500                       # number of demand (read+write) miss ticks (Tick)
system.l2.overallMissLatency::cpu.inst       30039500                       # number of overall miss ticks (Tick)
system.l2.overallMissLatency::cpu.data    29609516000                       # number of overall miss ticks (Tick)
system.l2.overallMissLatency::total       29639555500                       # number of overall miss ticks (Tick)
system.l2.demandAccesses::cpu.inst                410                       # number of demand (read+write) accesses (Count)
system.l2.demandAccesses::cpu.data             196739                       # number of demand (read+write) accesses (Count)
system.l2.demandAccesses::total                197149                       # number of demand (read+write) accesses (Count)
system.l2.overallAccesses::cpu.inst               410                       # number of overall (read+write) accesses (Count)
system.l2.overallAccesses::cpu.data            196739                       # number of overall (read+write) accesses (Count)
system.l2.overallAccesses::total               197149                       # number of overall (read+write) accesses (Count)
system.l2.demandMissRate::cpu.inst           0.741463                       # miss rate for demand accesses (Ratio)
system.l2.demandMissRate::cpu.data           0.999990                       # miss rate for demand accesses (Ratio)
system.l2.demandMissRate::total              0.999452                       # miss rate for demand accesses (Ratio)
system.l2.overallMissRate::cpu.inst          0.741463                       # miss rate for overall accesses (Ratio)
system.l2.overallMissRate::cpu.data          0.999990                       # miss rate for overall accesses (Ratio)
system.l2.overallMissRate::total             0.999452                       # miss rate for overall accesses (Ratio)
system.l2.demandAvgMissLatency::cpu.inst 98814.144737                       # average overall miss latency in ticks ((Tick/Count))
system.l2.demandAvgMissLatency::cpu.data 150503.037049                       # average overall miss latency in ticks ((Tick/Count))
system.l2.demandAvgMissLatency::total    150423.290077                       # average overall miss latency in ticks ((Tick/Count))
system.l2.overallAvgMissLatency::cpu.inst 98814.144737                       # average overall miss latency ((Tick/Count))
system.l2.overallAvgMissLatency::cpu.data 150503.037049                       # average overall miss latency ((Tick/Count))
system.l2.overallAvgMissLatency::total   150423.290077                       # average overall miss latency ((Tick/Count))
system.l2.blockedCycles::no_mshrs                   0                       # number of cycles access was blocked (Cycle)
system.l2.blockedCycles::no_targets                 0                       # number of cycles access was blocked (Cycle)
system.l2.blockedCauses::no_mshrs                   0                       # number of times access was blocked (Count)
system.l2.blockedCauses::no_targets                 0                       # number of times access was blocked (Count)
system.l2.avgBlocked::no_mshrs                    nan                       # average number of cycles each access was blocked ((Cycle/Count))
system.l2.avgBlocked::no_targets                  nan                       # average number of cycles each access was blocked ((Cycle/Count))
system.l2.writebacks::writebacks               192595                       # number of writebacks (Count)
system.l2.writebacks::total                    192595                       # number of writebacks (Count)
system.l2.demandMshrMisses::cpu.inst              304                       # number of demand (read+write) MSHR misses (Count)
system.l2.demandMshrMisses::cpu.data           196737                       # number of demand (read+write) MSHR misses (Count)
system.l2.demandMshrMisses::total              197041                       # number of demand (read+write) MSHR misses (Count)
system.l2.overallMshrMisses::cpu.inst             304                       # number of overall MSHR misses (Count)
system.l2.overallMshrMisses::cpu.data          196737                       # number of overall MSHR misses (Count)
system.l2.overallMshrMisses::total             197041                       # number of overall MSHR misses (Count)
system.l2.demandMshrMissLatency::cpu.inst     27009500                       # number of demand (read+write) MSHR miss ticks (Tick)
system.l2.demandMshrMissLatency::cpu.data  27642146000                       # number of demand (read+write) MSHR miss ticks (Tick)
system.l2.demandMshrMissLatency::total    27669155500                       # number of demand (read+write) MSHR miss ticks (Tick)
system.l2.overallMshrMissLatency::cpu.inst     27009500                       # number of overall MSHR miss ticks (Tick)
system.l2.overallMshrMissLatency::cpu.data  27642146000                       # number of overall MSHR miss ticks (Tick)
system.l2.overallMshrMissLatency::total   27669155500                       # number of overall MSHR miss ticks (Tick)
system.l2.demandMshrMissRate::cpu.inst       0.741463                       # mshr miss ratio for demand accesses (Ratio)
system.l2.demandMshrMissRate::cpu.data       0.999990                       # mshr miss ratio for demand accesses (Ratio)
system.l2.demandMshrMissRate::total          0.999452                       # mshr miss ratio for demand accesses (Ratio)
system.l2.overallMshrMissRate::cpu.inst      0.741463                       # mshr miss ratio for overall accesses (Ratio)
system.l2.overallMshrMissRate::cpu.data      0.999990                       # mshr miss ratio for overall accesses (Ratio)
system.l2.overallMshrMissRate::total         0.999452                       # mshr miss ratio for overall accesses (Ratio)
system.l2.demandAvgMshrMissLatency::cpu.inst 88847.039474                       # average overall mshr miss latency ((Tick/Count))
system.l2.demandAvgMshrMissLatency::cpu.data 140503.037049                       # average overall mshr miss latency ((Tick/Count))
system.l2.demandAvgMshrMissLatency::total 140423.340828                       # average overall mshr miss latency ((Tick/Count))
system.l2.overallAvgMshrMissLatency::cpu.inst 88847.039474                       # average overall mshr miss latency ((Tick/Count))
system.l2.overallAvgMshrMissLatency::cpu.data 140503.037049                       # average overall mshr miss latency ((Tick/Count))
system.l2.overallAvgMshrMissLatency::total 140423.340828                       # average overall mshr miss latency ((Tick/Count))
system.l2.replacements                         192666                       # number of replacements (Count)
system.l2.ReadCleanReq.hits::cpu.inst             106                       # number of ReadCleanReq hits (Count)
system.l2.ReadCleanReq.hits::total                106                       # number of ReadCleanReq hits (Count)
system.l2.ReadCleanReq.misses::cpu.inst           304                       # number of ReadCleanReq misses (Count)
system.l2.ReadCleanReq.misses::total              304                       # number of ReadCleanReq misses (Count)
system.l2.ReadCleanReq.missLatency::cpu.inst     30039500                       # number of ReadCleanReq miss ticks (Tick)
system.l2.ReadCleanReq.missLatency::total     30039500                       # number of ReadCleanReq miss ticks (Tick)
system.l2.ReadCleanReq.accesses::cpu.inst          410                       # number of ReadCleanReq accesses(hits+misses) (Count)
system.l2.ReadCleanReq.accesses::total            410                       # number of ReadCleanReq accesses(hits+misses) (Count)
system.l2.ReadCleanReq.missRate::cpu.inst     0.741463                       # miss rate for ReadCleanReq accesses (Ratio)
system.l2.ReadCleanReq.missRate::total       0.741463                       # miss rate for ReadCleanReq accesses (Ratio)
system.l2.ReadCleanReq.avgMissLatency::cpu.inst 98814.144737                       # average ReadCleanReq miss latency ((Tick/Count))
system.l2.ReadCleanReq.avgMissLatency::total 98814.144737                       # average ReadCleanReq miss latency ((Tick/Count))
system.l2.ReadCleanReq.mshrMisses::cpu.inst          304                       # number of ReadCleanReq MSHR misses (Count)
system.l2.ReadCleanReq.mshrMisses::total          304                       # number of ReadCleanReq MSHR misses (Count)
system.l2.ReadCleanReq.mshrMissLatency::cpu.inst     27009500                       # number of ReadCleanReq MSHR miss ticks (Tick)
system.l2.ReadCleanReq.mshrMissLatency::total     27009500                       # number of ReadCleanReq MSHR miss ticks (Tick)
system.l2.ReadCleanReq.mshrMissRate::cpu.inst     0.741463                       # mshr miss rate for ReadCleanReq accesses (Ratio)
system.l2.ReadCleanReq.mshrMissRate::total     0.741463                       # mshr miss rate for ReadCleanReq accesses (Ratio)
system.l2.ReadCleanReq.avgMshrMissLatency::cpu.inst 88847.039474                       # average ReadCleanReq mshr miss latency ((Tick/Count))
system.l2.ReadCleanReq.avgMshrMissLatency::total 88847.039474                       # average ReadCleanReq mshr miss latency ((Tick/Count))
system.l2.ReadExReq.misses::cpu.data           196662                       # number of ReadExReq misses (Count)
system.l2.ReadExReq.misses::total              196662                       # number of ReadExReq misses (Count)
system.l2.ReadExReq.missLatency::cpu.data  29601373000                       # number of ReadExReq miss ticks (Tick)
system.l2.ReadExReq.missLatency::total    29601373000                       # number of ReadExReq miss ticks (Tick)
system.l2.ReadExReq.accesses::cpu.data         196662                       # number of ReadExReq accesses(hits+misses) (Count)
system.l2.ReadExReq.accesses::total            196662                       # number of ReadExReq accesses(hits+misses) (Count)
system.l2.ReadExReq.missRate::cpu.data              1                       # miss rate for ReadExReq accesses (Ratio)
system.l2.ReadExReq.missRate::total                 1                       # miss rate for ReadExReq accesses (Ratio)
system.l2.ReadExReq.avgMissLatency::cpu.data 150519.027570                       # average ReadExReq miss latency ((Tick/Count))
system.l2.ReadExReq.avgMissLatency::total 150519.027570                       # average ReadExReq miss latency ((Tick/Count))
system.l2.ReadExReq.mshrMisses::cpu.data       196662                       # number of ReadExReq MSHR misses (Count)
system.l2.ReadExReq.mshrMisses::total          196662                       # number of ReadExReq MSHR misses (Count)
system.l2.ReadExReq.mshrMissLatency::cpu.data  27634753000                       # number of ReadExReq MSHR miss ticks (Tick)
system.l2.ReadExReq.mshrMissLatency::total  27634753000                       # number of ReadExReq MSHR miss ticks (Tick)
system.l2.ReadExReq.mshrMissRate::cpu.data            1                       # mshr miss rate for ReadExReq accesses (Ratio)
system.l2.ReadExReq.mshrMissRate::total             1                       # mshr miss rate for ReadExReq accesses (Ratio)
system.l2.ReadExReq.avgMshrMissLatency::cpu.data 140519.027570                       # average ReadExReq mshr miss latency ((Tick/Count))
system.l2.ReadExReq.avgMshrMissLatency::total 140519.027570                       # average ReadExReq mshr miss latency ((Tick/Count))
system.l2.ReadSharedReq.hits::cpu.data              2                       # number of ReadSharedReq hits (Count)
system.l2.ReadSharedReq.hits::total                 2                       # number of ReadSharedReq hits (Count)
system.l2.ReadSharedReq.misses::cpu.data           75                       # number of ReadSharedReq misses (Count)
system.l2.ReadSharedReq.misses::total              75                       # number of ReadSharedReq misses (Count)
system.l2.ReadSharedReq.missLatency::cpu.data      8143000                       # number of ReadSharedReq miss ticks (Tick)
system.l2.ReadSharedReq.missLatency::total      8143000                       # number of ReadSharedReq miss ticks (Tick)
system.l2.ReadSharedReq.accesses::cpu.data           77                       # number of ReadSharedReq accesses(hits+misses) (Count)
system.l2.ReadSharedReq.accesses::total            77                       # number of ReadSharedReq accesses(hits+misses) (Count)
system.l2.ReadSharedReq.missRate::cpu.data     0.974026                       # miss rate for ReadSharedReq accesses (Ratio)
system.l2.ReadSharedReq.missRate::total      0.974026                       # miss rate for ReadSharedReq accesses (Ratio)
system.l2.ReadSharedReq.avgMissLatency::cpu.data 108573.333333                       # average ReadSharedReq miss latency ((Tick/Count))
system.l2.ReadSharedReq.avgMissLatency::total 108573.333333                       # average ReadSharedReq miss latency ((Tick/Count))
system.l2.ReadSharedReq.mshrMisses::cpu.data           75                       # number of ReadSharedReq MSHR misses (Count)
system.l2.ReadSharedReq.mshrMisses::total           75                       # number of ReadSharedReq MSHR misses (Count)
system.l2.ReadSharedReq.mshrMissLatency::cpu.data      7393000                       # number of ReadSharedReq MSHR miss ticks (Tick)
system.l2.ReadSharedReq.mshrMissLatency::total      7393000                       # number of ReadSharedReq MSHR miss ticks (Tick)
system.l2.ReadSharedReq.mshrMissRate::cpu.data     0.974026                       # mshr miss rate for ReadSharedReq accesses (Ratio)
system.l2.ReadSharedReq.mshrMissRate::total     0.974026                       # mshr miss rate for ReadSharedReq accesses (Ratio)
system.l2.ReadSharedReq.avgMshrMissLatency::cpu.data 98573.333333                       # average ReadSharedReq mshr miss latency ((Tick/Count))
system.l2.ReadSharedReq.avgMshrMissLatency::total 98573.333333                       # average ReadSharedReq mshr miss latency ((Tick/Count))
system.l2.WritebackClean.hits::writebacks          277                       # number of WritebackClean hits (Count)
system.l2.WritebackClean.hits::total              277                       # number of WritebackClean hits (Count)
system.l2.WritebackClean.accesses::writebacks          277                       # number of WritebackClean accesses(hits+misses) (Count)
system.l2.WritebackClean.accesses::total          277                       # number of WritebackClean accesses(hits+misses) (Count)
system.l2.WritebackDirty.hits::writebacks       196578                       # number of WritebackDirty hits (Count)
system.l2.WritebackDirty.hits::total           196578                       # number of WritebackDirty hits (Count)
system.l2.WritebackDirty.accesses::writebacks       196578                       # number of WritebackDirty accesses(hits+misses) (Count)
system.l2.WritebackDirty.accesses::total       196578                       # number of WritebackDirty accesses(hits+misses) (Count)
system.l2.power_state.pwrStateResidencyTicks::UNDEFINED  16303991500                       # Cumulative time (in ticks) in various power states (Tick)
system.l2.tags.tagsInUse                  4277.683138                       # Average ticks per tags in use ((Tick/Count))
system.l2.tags.totalRefs                       394024                       # Total number of references to valid blocks. (Count)
system.l2.tags.sampledRefs                     197060                       # Sample count of references to valid blocks. (Count)
system.l2.tags.avgRefs                       1.999513                       # Average number of references to valid blocks. ((Count/Count))
system.l2.tags.warmupTick                       92000                       # The tick when the warmup percentage was hit. (Tick)
system.l2.tags.occupancies::writebacks       0.012777                       # Average occupied blocks per tick, per requestor ((Count/Tick))
system.l2.tags.occupancies::cpu.inst       153.589401                       # Average occupied blocks per tick, per requestor ((Count/Tick))
system.l2.tags.occupancies::cpu.data      4124.080960                       # Average occupied blocks per tick, per requestor ((Count/Tick))
system.l2.tags.avgOccs::writebacks           0.000001                       # Average percentage of cache occupancy ((Ratio/Tick))
system.l2.tags.avgOccs::cpu.inst             0.009374                       # Average percentage of cache occupancy ((Ratio/Tick))
system.l2.tags.avgOccs::cpu.data             0.251714                       # Average percentage of cache occupancy ((Ratio/Tick))
system.l2.tags.avgOccs::total                0.261089                       # Average percentage of cache occupancy ((Ratio/Tick))
system.l2.tags.occupanciesTaskId::1024           4394                       # Occupied blocks per task id (Count)
system.l2.tags.ageTaskId_1024::0                   81                       # Occupied blocks per task id, per block age (Count)
system.l2.tags.ageTaskId_1024::1                 1064                       # Occupied blocks per task id, per block age (Count)
system.l2.tags.ageTaskId_1024::2                 3032                       # Occupied blocks per task id, per block age (Count)
system.l2.tags.ageTaskId_1024::4                  217                       # Occupied blocks per task id, per block age (Count)
system.l2.tags.ratioOccsTaskId::1024         0.268188                       # Ratio of occupied blocks and all blocks, per task id (Ratio)
system.l2.tags.tagAccesses                     985110                       # Number of tag accesses (Count)
system.l2.tags.dataAccesses                    985110                       # Number of data accesses (Count)
system.l2.tags.power_state.pwrStateResidencyTicks::UNDEFINED  16303991500                       # Cumulative time (in ticks) in various power states (Tick)
system.mem_ctrls.avgPriority_writebacks::samples    770380.00                       # Average QoS priority value for accepted requests (Count)
system.mem_ctrls.avgPriority_cpu.inst::samples      1212.00                       # Average QoS priority value for accepted requests (Count)
system.mem_ctrls.avgPriority_cpu.data::samples    786948.00                       # Average QoS priority value for accepted requests (Count)
system.mem_ctrls.priorityMinLatency      0.000000018750                       # per QoS priority minimum request to response latency (Second)
system.mem_ctrls.priorityMaxLatency      0.000016816500                       # per QoS priority maximum request to response latency (Second)
system.mem_ctrls.numReadWriteTurnArounds        47997                       # Number of turnarounds from READ to WRITE (Count)
system.mem_ctrls.numWriteReadTurnArounds        47997                       # Number of turnarounds from WRITE to READ (Count)
system.mem_ctrls.numStayReadState             1051574                       # Number of times bus staying in READ state (Count)
system.mem_ctrls.numStayWriteState             723349                       # Number of times bus staying in WRITE state (Count)
system.mem_ctrls.readReqs                      197040                       # Number of read requests accepted (Count)
system.mem_ctrls.writeReqs                     192595                       # Number of write requests accepted (Count)
system.mem_ctrls.readBursts                    788160                       # Number of controller read bursts, including those serviced by the write queue (Count)
system.mem_ctrls.writeBursts                   770380                       # Number of controller write bursts, including those merged in the write queue (Count)
system.mem_ctrls.servicedByWrQ                      0                       # Number of controller read bursts serviced by the write queue (Count)
system.mem_ctrls.mergedWrBursts                     0                       # Number of controller write bursts merged with an existing one (Count)
system.mem_ctrls.neitherReadNorWriteReqs            0                       # Number of requests that are neither read nor write (Count)
system.mem_ctrls.avgRdQLen                       7.73                       # Average read queue length when enqueuing ((Count/Tick))
system.mem_ctrls.avgWrQLen                      30.30                       # Average write queue length when enqueuing ((Count/Tick))
system.mem_ctrls.numRdRetry                         0                       # Number of times read queue was full causing retry (Count)
system.mem_ctrls.numWrRetry                         0                       # Number of times write queue was full causing retry (Count)
system.mem_ctrls.readPktSize::0                     0                       # Read request sizes (log2) (Count)
system.mem_ctrls.readPktSize::1                     0                       # Read request sizes (log2) (Count)
system.mem_ctrls.readPktSize::2                     0                       # Read request sizes (log2) (Count)
system.mem_ctrls.readPktSize::3                     0                       # Read request sizes (log2) (Count)
system.mem_ctrls.readPktSize::4                     0                       # Read request sizes (log2) (Count)
system.mem_ctrls.readPktSize::5                     0                       # Read request sizes (log2) (Count)
system.mem_ctrls.readPktSize::6                788160                       # Read request sizes (log2) (Count)
system.mem_ctrls.readPktSize::7                     0                       # Read request sizes (log2) (Count)
system.mem_ctrls.readPktSize::8                     0                       # Read request sizes (log2) (Count)
system.mem_ctrls.writePktSize::0                    0                       # Write request sizes (log2) (Count)
system.mem_ctrls.writePktSize::1                    0                       # Write request sizes (log2) (Count)
system.mem_ctrls.writePktSize::2                    0                       # Write request sizes (log2) (Count)
system.mem_ctrls.writePktSize::3                    0                       # Write request sizes (log2) (Count)
system.mem_ctrls.writePktSize::4                    0                       # Write request sizes (log2) (Count)
system.mem_ctrls.writePktSize::5                    0                       # Write request sizes (log2) (Count)
system.mem_ctrls.writePktSize::6               770380                       # Write request sizes (log2) (Count)
system.mem_ctrls.writePktSize::7                    0                       # Write request sizes (log2) (Count)
system.mem_ctrls.writePktSize::8                    0                       # Write request sizes (log2) (Count)
system.mem_ctrls.rdQLenPdf::0                  100261                       # What read queue length does an incoming req see (Count)
system.mem_ctrls.rdQLenPdf::1                  100318                       # What read queue length does an incoming req see (Count)
system.mem_ctrls.rdQLenPdf::2                  100434                       # What read queue length does an incoming req see (Count)
system.mem_ctrls.rdQLenPdf::3                  101447                       # What read queue length does an incoming req see (Count)
[...]
system.mem_ctrls.dram.perBankWrBursts::9        48132                       # Per bank write bursts (Count)
system.mem_ctrls.dram.perBankWrBursts::10        48136                       # Per bank write bursts (Count)
system.mem_ctrls.dram.perBankWrBursts::11        48132                       # Per bank write bursts (Count)
system.mem_ctrls.dram.perBankWrBursts::12        48148                       # Per bank write bursts (Count)
system.mem_ctrls.dram.perBankWrBursts::13        48136                       # Per bank write bursts (Count)
system.mem_ctrls.dram.perBankWrBursts::14        48156                       # Per bank write bursts (Count)
system.mem_ctrls.dram.perBankWrBursts::15        48168                       # Per bank write bursts (Count)
system.mem_ctrls.dram.totQLat             53173665000                       # Total ticks spent queuing (Tick)
system.mem_ctrls.dram.totBusLat            3940800000                       # Total ticks spent in databus transfers (Tick)
system.mem_ctrls.dram.totMemAccLat        67951665000                       # Total ticks spent from burst creation until serviced by the DRAM (Tick)
system.mem_ctrls.dram.avgQLat                67465.57                       # Average queueing delay per DRAM burst ((Tick/Count))
system.mem_ctrls.dram.avgBusLat               5000.00                       # Average bus latency per DRAM burst ((Tick/Count))
system.mem_ctrls.dram.avgMemAccLat           86215.57                       # Average memory access latency per DRAM burst ((Tick/Count))
system.mem_ctrls.dram.readRowHits              728133                       # Number of row buffer hits during reads (Count)
system.mem_ctrls.dram.writeRowHits             702411                       # Number of row buffer hits during writes (Count)
system.mem_ctrls.dram.readRowHitRate            92.38                       # Row buffer hit rate for reads (Ratio)
system.mem_ctrls.dram.writeRowHitRate           91.18                       # Row buffer hit rate for writes (Ratio)
system.mem_ctrls.dram.bytesPerActivate::samples       127965                       # Bytes accessed per row activation (Byte)
system.mem_ctrls.dram.bytesPerActivate::mean   779.441629                       # Bytes accessed per row activation (Byte)
system.mem_ctrls.dram.bytesPerActivate::gmean   699.966715                       # Bytes accessed per row activation (Byte)
system.mem_ctrls.dram.bytesPerActivate::stdev   291.581311                       # Bytes accessed per row activation (Byte)
system.mem_ctrls.dram.bytesPerActivate::0-127         1429      1.12%      1.12% # Bytes accessed per row activation (Byte)
system.mem_ctrls.dram.bytesPerActivate::128-255         2771      2.17%      3.28% # Bytes accessed per row activation (Byte)
system.mem_ctrls.dram.bytesPerActivate::256-383        11591      9.06%     12.34% # Bytes accessed per row activation (Byte)
system.mem_ctrls.dram.bytesPerActivate::384-511         5407      4.23%     16.57% # Bytes accessed per row activation (Byte)
system.mem_ctrls.dram.bytesPerActivate::512-639        20081     15.69%     32.26% # Bytes accessed per row activation (Byte)
system.mem_ctrls.dram.bytesPerActivate::640-767        11352      8.87%     41.13% # Bytes accessed per row activation (Byte)
system.mem_ctrls.dram.bytesPerActivate::768-895         6277      4.91%     46.03% # Bytes accessed per row activation (Byte)
system.mem_ctrls.dram.bytesPerActivate::896-1023         1663      1.30%     47.33% # Bytes accessed per row activation (Byte)
system.mem_ctrls.dram.bytesPerActivate::1024-1151        67394     52.67%    100.00% # Bytes accessed per row activation (Byte)
system.mem_ctrls.dram.bytesPerActivate::total       127965                       # Bytes accessed per row activation (Byte)
system.mem_ctrls.dram.bytesRead              50442240                       # Total bytes read (Byte)
system.mem_ctrls.dram.bytesWritten           49303104                       # Total bytes written (Byte)
system.mem_ctrls.dram.avgRdBW             3093.858335                       # Average DRAM read bandwidth in MiBytes/s ((Byte/Second))
system.mem_ctrls.dram.avgWrBW             3023.989800                       # Average DRAM write bandwidth in MiBytes/s ((Byte/Second))
system.mem_ctrls.dram.peakBW                 12800.00                       # Theoretical peak bandwidth in MiByte/s ((Byte/Second))
system.mem_ctrls.dram.busUtil                   47.80                       # Data bus utilization in percentage (Ratio)
system.mem_ctrls.dram.busUtilRead               24.17                       # Data bus utilization in percentage for reads (Ratio)
system.mem_ctrls.dram.busUtilWrite              23.62                       # Data bus utilization in percentage for writes (Ratio)
system.mem_ctrls.dram.pageHitRate               91.79                       # Row buffer hit rate, read and write combined (Ratio)
system.mem_ctrls.dram.power_state.pwrStateResidencyTicks::UNDEFINED  16303991500                       # Cumulative time (in ticks) in various power states (Tick)
system.mem_ctrls.dram.rank0.actEnergy       458273760                       # Energy for activate commands per rank (pJ) (Joule)
system.mem_ctrls.dram.rank0.preEnergy       243555510                       # Energy for precharge commands per rank (pJ) (Joule)
system.mem_ctrls.dram.rank0.readEnergy     2813474160                       # Energy for read commands per rank (pJ) (Joule)
system.mem_ctrls.dram.rank0.writeEnergy    2010749220                       # Energy for write commands per rank (pJ) (Joule)
system.mem_ctrls.dram.rank0.refreshEnergy 1286441520.000000                       # Energy for refresh commands per rank (pJ) (Joule)
system.mem_ctrls.dram.rank0.actBackEnergy   6488796210                       # Energy for active background per rank (pJ) (Joule)
system.mem_ctrls.dram.rank0.preBackEnergy    796483680                       # Energy for precharge background per rank (pJ) (Joule)
system.mem_ctrls.dram.rank0.actPowerDownEnergy            0                       # Energy for active power-down per rank (pJ) (Joule)
system.mem_ctrls.dram.rank0.prePowerDownEnergy            0                       # Energy for precharge power-down per rank (pJ) (Joule)
system.mem_ctrls.dram.rank0.selfRefreshEnergy            0                       # Energy for self refresh per rank (pJ) (Joule)
system.mem_ctrls.dram.rank0.totalEnergy   14097774060                       # Total energy per rank (pJ) (Joule)
system.mem_ctrls.dram.rank0.averagePower   864.682373                       # Core power per rank (mW) (Watt)
system.mem_ctrls.dram.rank0.totalIdleTime            0                       # Total Idle time Per DRAM Rank (Tick)
system.mem_ctrls.dram.rank0.pwrStateTime::IDLE   1941784500                       # Time in different power states (Tick)
system.mem_ctrls.dram.rank0.pwrStateTime::REF    544180000                       # Time in different power states (Tick)
system.mem_ctrls.dram.rank0.pwrStateTime::SREF            0                       # Time in different power states (Tick)
system.mem_ctrls.dram.rank0.pwrStateTime::PRE_PDN            0                       # Time in different power states (Tick)
system.mem_ctrls.dram.rank0.pwrStateTime::ACT  13818027000                       # Time in different power states (Tick)
system.mem_ctrls.dram.rank0.pwrStateTime::ACT_PDN            0                       # Time in different power states (Tick)
system.mem_ctrls.dram.rank1.actEnergy       455482020                       # Energy for activate commands per rank (pJ) (Joule)
system.mem_ctrls.dram.rank1.preEnergy       242071665                       # Energy for precharge commands per rank (pJ) (Joule)
system.mem_ctrls.dram.rank1.readEnergy     2813988240                       # Energy for read commands per rank (pJ) (Joule)
system.mem_ctrls.dram.rank1.writeEnergy    2010535200                       # Energy for write commands per rank (pJ) (Joule)
system.mem_ctrls.dram.rank1.refreshEnergy 1286441520.000000                       # Energy for refresh commands per rank (pJ) (Joule)
system.mem_ctrls.dram.rank1.actBackEnergy   6433236030                       # Energy for active background per rank (pJ) (Joule)
system.mem_ctrls.dram.rank1.preBackEnergy    843271200                       # Energy for precharge background per rank (pJ) (Joule)
system.mem_ctrls.dram.rank1.actPowerDownEnergy            0                       # Energy for active power-down per rank (pJ) (Joule)
system.mem_ctrls.dram.rank1.prePowerDownEnergy            0                       # Energy for precharge power-down per rank (pJ) (Joule)
system.mem_ctrls.dram.rank1.selfRefreshEnergy            0                       # Energy for self refresh per rank (pJ) (Joule)
system.mem_ctrls.dram.rank1.totalEnergy   14085025875                       # Total energy per rank (pJ) (Joule)
system.mem_ctrls.dram.rank1.averagePower   863.900467                       # Core power per rank (mW) (Watt)
system.mem_ctrls.dram.rank1.totalIdleTime            0                       # Total Idle time Per DRAM Rank (Tick)
system.mem_ctrls.dram.rank1.pwrStateTime::IDLE   2050598000                       # Time in different power states (Tick)
system.mem_ctrls.dram.rank1.pwrStateTime::REF    544180000                       # Time in different power states (Tick)
system.mem_ctrls.dram.rank1.pwrStateTime::SREF            0                       # Time in different power states (Tick)
system.mem_ctrls.dram.rank1.pwrStateTime::PRE_PDN            0                       # Time in different power states (Tick)
system.mem_ctrls.dram.rank1.pwrStateTime::ACT  13709213500                       # Time in different power states (Tick)
system.mem_ctrls.dram.rank1.pwrStateTime::ACT_PDN            0                       # Time in different power states (Tick)
system.mem_ctrls.power_state.pwrStateResidencyTicks::UNDEFINED  16303991500                       # Cumulative time (in ticks) in various power states (Tick)
system.membus.transDist::ReadResp                 378                       # Transaction distribution (Count)
system.membus.transDist::WritebackDirty        192595                       # Transaction distribution (Count)
system.membus.transDist::CleanEvict                44                       # Transaction distribution (Count)
system.membus.transDist::ReadExReq             196662                       # Transaction distribution (Count)
system.membus.transDist::ReadExResp            196662                       # Transaction distribution (Count)
system.membus.transDist::ReadSharedReq            378                       # Transaction distribution (Count)
system.membus.pktCount_system.l2.mem_side_port::system.mem_ctrls.port       586719                       # Packet count per connected requestor and responder (Count)
system.membus.pktCount::total                  586719                       # Packet count per connected requestor and responder (Count)
system.membus.pktSize_system.l2.mem_side_port::system.mem_ctrls.port     99746560                       # Cumulative packet size per connected requestor and responder (Byte)
system.membus.pktSize::total                 99746560                       # Cumulative packet size per connected requestor and responder (Byte)
system.membus.snoops                                0                       # Total snoops (Count)
system.membus.snoopTraffic                          0                       # Total snoop traffic (Byte)
system.membus.snoopFanout::samples             197040                       # Request fanout histogram (Count)
system.membus.snoopFanout::mean                     0                       # Request fanout histogram (Count)
system.membus.snoopFanout::stdev                    0                       # Request fanout histogram (Count)
system.membus.snoopFanout::underflows               0      0.00%      0.00% # Request fanout histogram (Count)
system.membus.snoopFanout::0                   197040    100.00%    100.00% # Request fanout histogram (Count)
system.membus.snoopFanout::1                        0      0.00%    100.00% # Request fanout histogram (Count)
system.membus.snoopFanout::overflows                0      0.00%    100.00% # Request fanout histogram (Count)
system.membus.snoopFanout::min_value                0                       # Request fanout histogram (Count)
system.membus.snoopFanout::max_value                0                       # Request fanout histogram (Count)
system.membus.snoopFanout::total               197040                       # Request fanout histogram (Count)
system.membus.power_state.pwrStateResidencyTicks::UNDEFINED  16303991500                       # Cumulative time (in ticks) in various power states (Tick)
system.membus.reqLayer0.occupancy          3520964000                       # Layer occupancy (ticks) (Tick)
system.membus.reqLayer0.utilization               0.2                       # Layer utilization (Ratio)
system.membus.respLayer1.occupancy         3426860250                       # Layer occupancy (ticks) (Tick)
system.membus.respLayer1.utilization              0.2                       # Layer utilization (Ratio)
system.membus.snoop_filter.totRequests         389679                       # Total number of requests made to the snoop filter. (Count)
system.membus.snoop_filter.hitSingleRequests       192639                       # Number of requests hitting in the snoop filter with a single holder of the requested data. (Count)
system.membus.snoop_filter.hitMultiRequests            0                       # Number of requests hitting in the snoop filter with multiple (>1) holders of the requested data. (Count)
system.membus.snoop_filter.totSnoops                0                       # Total number of snoops made to the snoop filter. (Count)
system.membus.snoop_filter.hitSingleSnoops            0                       # Number of snoops hitting in the snoop filter with a single holder of the requested data. (Count)
system.membus.snoop_filter.hitMultiSnoops            0                       # Number of snoops hitting in the snoop filter with multiple (>1) holders of the requested data. (Count)
system.tol2bus.transDist::ReadResp                486                       # Transaction distribution (Count)
system.tol2bus.transDist::WritebackDirty       389173                       # Transaction distribution (Count)
system.tol2bus.transDist::WritebackClean          282                       # Transaction distribution (Count)
system.tol2bus.transDist::CleanEvict               92                       # Transaction distribution (Count)
system.tol2bus.transDist::ReadExReq            196662                       # Transaction distribution (Count)
system.tol2bus.transDist::ReadExResp           196662                       # Transaction distribution (Count)
system.tol2bus.transDist::ReadCleanReq            410                       # Transaction distribution (Count)
system.tol2bus.transDist::ReadSharedReq            77                       # Transaction distribution (Count)
system.tol2bus.pktCount_system.cpu.icache.mem_side_port::system.l2.cpu_side_port         1101                       # Packet count per connected requestor and responder (Count)
system.tol2bus.pktCount_system.cpu.dcache.mem_side_port::system.l2.cpu_side_port       590077                       # Packet count per connected requestor and responder (Count)
system.tol2bus.pktCount::total                 591178                       # Packet count per connected requestor and responder (Count)
system.tol2bus.pktSize_system.cpu.icache.mem_side_port::system.l2.cpu_side_port       176896                       # Cumulative packet size per connected requestor and responder (Byte)
system.tol2bus.pktSize_system.cpu.dcache.mem_side_port::system.l2.cpu_side_port    100689152                       # Cumulative packet size per connected requestor and responder (Byte)
system.tol2bus.pktSize::total               100866048                       # Cumulative packet size per connected requestor and responder (Byte)
system.tol2bus.snoops                          192666                       # Total snoops (Count)
system.tol2bus.snoopTraffic                  49304320                       # Total snoop traffic (Byte)
system.tol2bus.snoopFanout::samples            389815                       # Request fanout histogram (Count)
system.tol2bus.snoopFanout::mean             0.000085                       # Request fanout histogram (Count)
system.tol2bus.snoopFanout::stdev            0.009200                       # Request fanout histogram (Count)
system.tol2bus.snoopFanout::underflows              0      0.00%      0.00% # Request fanout histogram (Count)
system.tol2bus.snoopFanout::0                  389782     99.99%     99.99% # Request fanout histogram (Count)
system.tol2bus.snoopFanout::1                      33      0.01%    100.00% # Request fanout histogram (Count)
system.tol2bus.snoopFanout::2                       0      0.00%    100.00% # Request fanout histogram (Count)
system.tol2bus.snoopFanout::overflows               0      0.00%    100.00% # Request fanout histogram (Count)
system.tol2bus.snoopFanout::min_value               0                       # Request fanout histogram (Count)
system.tol2bus.snoopFanout::max_value               1                       # Request fanout histogram (Count)
system.tol2bus.snoopFanout::total              389815                       # Request fanout histogram (Count)
system.tol2bus.power_state.pwrStateResidencyTicks::UNDEFINED  16303991500                       # Cumulative time (in ticks) in various power states (Tick)
system.tol2bus.reqLayer0.occupancy          984455000                       # Layer occupancy (ticks) (Tick)
system.tol2bus.reqLayer0.utilization              0.1                       # Layer utilization (Ratio)
system.tol2bus.respLayer0.occupancy           1840500                       # Layer occupancy (ticks) (Tick)
system.tol2bus.respLayer0.utilization             0.0                       # Layer utilization (Ratio)
system.tol2bus.respLayer1.occupancy         885325500                       # Layer occupancy (ticks) (Tick)
system.tol2bus.respLayer1.utilization             0.1                       # Layer utilization (Ratio)
system.tol2bus.snoop_filter.totRequests        394030                       # Total number of requests made to the snoop filter. (Count)
system.tol2bus.snoop_filter.hitSingleRequests       196882                       # Number of requests hitting in the snoop filter with a single holder of the requested data. (Count)
system.tol2bus.snoop_filter.hitMultiRequests            5                       # Number of requests hitting in the snoop filter with multiple (>1) holders of the requested data. (Count)
system.tol2bus.snoop_filter.totSnoops              27                       # Total number of snoops made to the snoop filter. (Count)
system.tol2bus.snoop_filter.hitSingleSnoops           27                       # Number of snoops hitting in the snoop filter with a single holder of the requested data. (Count)
system.tol2bus.snoop_filter.hitMultiSnoops            0                       # Number of snoops hitting in the snoop filter with multiple (>1) holders of the requested data. (Count)
system.voltage_domain.voltage                       1                       # Voltage in Volts (Volt)
system.workload.inst.arm                            0                       # number of arm instructions executed (Count)
system.workload.inst.quiesce                        0                       # number of quiesce instructions executed (Count)
system.cpu.idleCycles                        27007208                       # Total number of cycles that the object has spent stopped (Unspecified)
system.cpu.tickCycles                         5600775                       # Number of cycles that the object actually ticked (Unspecified)

---------- End Simulation Statistics   ----------
