
---------- Begin Simulation Statistics ----------
simSeconds                                   0.000588                       # Number of seconds simulated (Second)
simTicks                                    587688000                       # Number of ticks simulated (Tick)
finalTick                                   587688000                       # Number of ticks from beginning of simulation (restored from checkpoints and never reset) (Tick)
simFreq                                  1000000000000                       # The number of ticks per simulated second ((Tick/Second))
hostSeconds                                      0.89                       # Real time elapsed on the host (Second)
hostTickRate                                662788912                       # The number of ticks simulated per host second (ticks/s) ((Tick/Second))
hostMemory                                     705372                       # Number of bytes of host memory used (Byte)
simInsts                                       192292                       # Number of instructions simulated (Count)
simOps                                         193479                       # Number of ops (including micro ops) simulated (Count)
hostInstRate                                   215082                       # Simulator instruction rate (inst/s) ((Count/Second))
hostOpRate                                     216408                       # Simulator op (including micro ops) rate (op/s) ((Count/Second))
system.clk_domain.clock                          1000                       # Clock period in ticks (Tick)
system.cpu.numCycles                          1175058                       # Number of cpu cycles simulated (Cycle)
system.cpu.numWorkItemsStarted                      0                       # Number of work items this cpu started (Count)
system.cpu.numWorkItemsCompleted                    0                       # Number of work items this cpu completed (Count)
system.cpu.numInsts                            192292                       # Number of instructions committed (Count)
system.cpu.numOps                              193479                       # Number of ops (including micro ops) committed (Count)
system.cpu.numDiscardedOps                       1000                       # Number of ops (including micro ops) which were discarded before commit (Count)
system.cpu.numFetchSuspends                         0                       # Number of times Execute suspended instruction fetching (Count)
system.cpu.cpi                               6.110800                       # CPI: cycles per instruction ((Cycle/Count))
system.cpu.ipc                               0.163645                       # IPC: instructions per cycle ((Count/Cycle))
system.cpu.committedInstType_0::No_OpClass           13      0.01%      0.01% # Class of committed instruction (Count)
system.cpu.committedInstType_0::IntAlu         111474     57.62%     57.62% # Class of committed instruction (Count)
system.cpu.committedInstType_0::IntMult            10      0.01%     57.63% # Class of committed instruction (Count)
system.cpu.committedInstType_0::IntDiv              4      0.00%     57.63% # Class of committed instruction (Count)
system.cpu.committedInstType_0::FloatAdd            0      0.00%     57.63% # Class of committed instruction (Count)
system.cpu.committedInstType_0::FloatCmp            0      0.00%     57.63% # Class of committed instruction (Count)
system.cpu.committedInstType_0::FloatCvt            0      0.00%     57.63% # Class of committed instruction (Count)
system.cpu.committedInstType_0::FloatMult            0      0.00%     57.63% # Class of committed instruction (Count)
system.cpu.committedInstType_0::FloatMultAcc            0      0.00%     57.63% # Class of committed instruction (Count)
system.cpu.committedInstType_0::FloatDiv            0      0.00%     57.63% # Class of committed instruction (Count)
system.cpu.committedInstType_0::FloatMisc            4      0.00%     57.63% # Class of committed instruction (Count)
system.cpu.committedInstType_0::FloatSqrt            0      0.00%     57.63% # Class of committed instruction (Count)
system.cpu.committedInstType_0::SimdAdd             2      0.00%     57.63% # Class of committed instruction (Count)
system.cpu.committedInstType_0::SimdAddAcc            0      0.00%     57.63% # Class of committed instruction (Count)
system.cpu.committedInstType_0::SimdAlu             5      0.00%     57.64% # Class of committed instruction (Count)
system.cpu.committedInstType_0::SimdCmp             8      0.00%     57.64% # Class of committed instruction (Count)
system.cpu.committedInstType_0::SimdCvt             0      0.00%     57.64% # Class of committed instruction (Count)
system.cpu.committedInstType_0::SimdMisc            5      0.00%     57.64% # Class of committed instruction (Count)
system.cpu.committedInstType_0::SimdMult            0      0.00%     57.64% # Class of committed instruction (Count)
system.cpu.committedInstType_0::SimdMultAcc            0      0.00%     57.64% # Class of committed instruction (Count)
system.cpu.committedInstType_0::SimdShift            0      0.00%     57.64% # Class of committed instruction (Count)
system.cpu.committedInstType_0::SimdShiftAcc            0      0.00%     57.64% # Class of committed instruction (Count)
system.cpu.committedInstType_0::SimdDiv             0      0.00%     57.64% # Class of committed instruction (Count)
system.cpu.committedInstType_0::SimdSqrt            0      0.00%     57.64% # Class of committed instruction (Count)
system.cpu.committedInstType_0::SimdFloatAdd            0      0.00%     57.64% # Class of committed instruction (Count)
system.cpu.committedInstType_0::SimdFloatAlu            0      0.00%     57.64% # Class of committed instruction (Count)
system.cpu.committedInstType_0::SimdFloatCmp            0      0.00%     57.64% # Class of committed instruction (Count)
system.cpu.committedInstType_0::SimdFloatCvt            0      0.00%     57.64% # Class of committed instruction (Count)
system.cpu.committedInstType_0::SimdFloatDiv            0      0.00%     57.64% # Class of committed instruction (Count)
system.cpu.committedInstType_0::SimdFloatMisc            0      0.00%     57.64% # Class of committed instruction (Count)
system.cpu.committedInstType_0::SimdFloatMult            0      0.00%     57.64% # Class of committed instruction (Count)
system.cpu.committedInstType_0::SimdFloatMultAcc            0      0.00%     57.64% # Class of committed instruction (Count)
system.cpu.committedInstType_0::SimdFloatSqrt            0      0.00%     57.64% # Class of committed instruction (Count)
system.cpu.committedInstType_0::SimdReduceAdd            0      0.00%     57.64% # Class of committed instruction (Count)
system.cpu.committedInstType_0::SimdReduceAlu            0      0.00%     57.64% # Class of committed instruction (Count)
system.cpu.committedInstType_0::SimdReduceCmp            0      0.00%     57.64% # Class of committed instruction (Count)
system.cpu.committedInstType_0::SimdFloatReduceAdd            0      0.00%     57.64% # Class of committed instruction (Count)
system.cpu.committedInstType_0::SimdFloatReduceCmp            0      0.00%     57.64% # Class of committed instruction (Count)
system.cpu.committedInstType_0::SimdAes             0      0.00%     57.64% # Class of committed instruction (Count)
system.cpu.committedInstType_0::SimdAesMix            0      0.00%     57.64% # Class of committed instruction (Count)
system.cpu.committedInstType_0::SimdSha1Hash            0      0.00%     57.64% # Class of committed instruction (Count)
system.cpu.committedInstType_0::SimdSha1Hash2            0      0.00%     57.64% # Class of committed instruction (Count)
system.cpu.committedInstType_0::SimdSha256Hash            0      0.00%     57.64% # Class of committed instruction (Count)
system.cpu.committedInstType_0::SimdSha256Hash2            0      0.00%     57.64% # Class of committed instruction (Count)
system.cpu.committedInstType_0::SimdShaSigma2            0      0.00%     57.64% # Class of committed instruction (Count)
system.cpu.committedInstType_0::SimdShaSigma3            0      0.00%     57.64% # Class of committed instruction (Count)
system.cpu.committedInstType_0::SimdPredAlu            0      0.00%     57.64% # Class of committed instruction (Count)
system.cpu.committedInstType_0::MemRead         59004     30.50%     88.14% # Class of committed instruction (Count)
system.cpu.committedInstType_0::MemWrite        22950     11.86%    100.00% # Class of committed instruction (Count)
system.cpu.committedInstType_0::FloatMemRead            0      0.00%    100.00% # Class of committed instruction (Count)
system.cpu.committedInstType_0::FloatMemWrite            0      0.00%    100.00% # Class of committed instruction (Count)
system.cpu.committedInstType_0::IprAccess            0      0.00%    100.00% # Class of committed instruction (Count)
system.cpu.committedInstType_0::InstPrefetch            0      0.00%    100.00% # Class of committed instruction (Count)
system.cpu.committedInstType_0::total          193479                       # Class of committed instruction (Count)
system.cpu.branchPred.lookups                   13943                       # Number of BP lookups (Count)
system.cpu.branchPred.condPredicted             13422                       # Number of conditional branches predicted (Count)
system.cpu.branchPred.condIncorrect               477                       # Number of conditional branches incorrect (Count)
system.cpu.branchPred.BTBLookups                12966                       # Number of BTB lookups (Count)
system.cpu.branchPred.BTBHits                   12424                       # Number of BTB hits (Count)
system.cpu.branchPred.BTBHitRatio            0.958198                       # BTB Hit Ratio (Ratio)
system.cpu.branchPred.RASUsed                     171                       # Number of times the RAS was used to get a target. (Count)
system.cpu.branchPred.RASIncorrect                  9                       # Number of incorrect RAS predictions. (Count)
system.cpu.branchPred.indirectLookups              33                       # Number of indirect predictor lookups. (Count)
system.cpu.branchPred.indirectHits                  1                       # Number of indirect target hits. (Count)
system.cpu.branchPred.indirectMisses               32                       # Number of indirect misses. (Count)
system.cpu.branchPred.indirectMispredicted           30                       # Number of mispredicted indirect branches. (Count)
system.cpu.dcache.demandHits::cpu.data          59543                       # number of demand (read+write) hits (Count)
system.cpu.dcache.demandHits::total             59543                       # number of demand (read+write) hits (Count)
system.cpu.dcache.overallHits::cpu.data         59543                       # number of overall hits (Count)
system.cpu.dcache.overallHits::total            59543                       # number of overall hits (Count)
system.cpu.dcache.demandMisses::cpu.data        10484                       # number of demand (read+write) misses (Count)
system.cpu.dcache.demandMisses::total           10484                       # number of demand (read+write) misses (Count)
system.cpu.dcache.overallMisses::cpu.data        10484                       # number of overall misses (Count)
system.cpu.dcache.overallMisses::total          10484                       # number of overall misses (Count)
system.cpu.dcache.demandMissLatency::cpu.data    889328500                       # number of demand (read+write) miss ticks (Tick)
system.cpu.dcache.demandMissLatency::total    889328500                       # number of demand (read+write) miss ticks (Tick)
system.cpu.dcache.overallMissLatency::cpu.data    889328500                       # number of overall miss ticks (Tick)
system.cpu.dcache.overallMissLatency::total    889328500                       # number of overall miss ticks (Tick)
system.cpu.dcache.demandAccesses::cpu.data        70027                       # number of demand (read+write) accesses (Count)
system.cpu.dcache.demandAccesses::total         70027                       # number of demand (read+write) accesses (Count)
system.cpu.dcache.overallAccesses::cpu.data        70027                       # number of overall (read+write) accesses (Count)
system.cpu.dcache.overallAccesses::total        70027                       # number of overall (read+write) accesses (Count)
system.cpu.dcache.demandMissRate::cpu.data     0.149714                       # miss rate for demand accesses (Ratio)
system.cpu.dcache.demandMissRate::total      0.149714                       # miss rate for demand accesses (Ratio)
system.cpu.dcache.overallMissRate::cpu.data     0.149714                       # miss rate for overall accesses (Ratio)
system.cpu.dcache.overallMissRate::total     0.149714                       # miss rate for overall accesses (Ratio)
system.cpu.dcache.demandAvgMissLatency::cpu.data 84827.212896                       # average overall miss latency in ticks ((Tick/Count))
system.cpu.dcache.demandAvgMissLatency::total 84827.212896                       # average overall miss latency in ticks ((Tick/Count))
system.cpu.dcache.overallAvgMissLatency::cpu.data 84827.212896                       # average overall miss latency ((Tick/Count))
system.cpu.dcache.overallAvgMissLatency::total 84827.212896                       # average overall miss latency ((Tick/Count))
system.cpu.dcache.blockedCycles::no_mshrs            0                       # number of cycles access was blocked (Cycle)
system.cpu.dcache.blockedCycles::no_targets            0                       # number of cycles access was blocked (Cycle)
system.cpu.dcache.blockedCauses::no_mshrs            0                       # number of times access was blocked (Count)
system.cpu.dcache.blockedCauses::no_targets            0                       # number of times access was blocked (Count)
system.cpu.dcache.avgBlocked::no_mshrs            nan                       # average number of cycles each access was blocked ((Cycle/Count))
system.cpu.dcache.avgBlocked::no_targets          nan                       # average number of cycles each access was blocked ((Cycle/Count))
system.cpu.dcache.writebacks::writebacks         9622                       # number of writebacks (Count)
system.cpu.dcache.writebacks::total              9622                       # number of writebacks (Count)
system.cpu.dcache.demandMshrHits::cpu.data          244                       # number of demand (read+write) MSHR hits (Count)
system.cpu.dcache.demandMshrHits::total           244                       # number of demand (read+write) MSHR hits (Count)
system.cpu.dcache.overallMshrHits::cpu.data          244                       # number of overall MSHR hits (Count)
system.cpu.dcache.overallMshrHits::total          244                       # number of overall MSHR hits (Count)
system.cpu.dcache.demandMshrMisses::cpu.data        10240                       # number of demand (read+write) MSHR misses (Count)
system.cpu.dcache.demandMshrMisses::total        10240                       # number of demand (read+write) MSHR misses (Count)
system.cpu.dcache.overallMshrMisses::cpu.data        10240                       # number of overall MSHR misses (Count)
system.cpu.dcache.overallMshrMisses::total        10240                       # number of overall MSHR misses (Count)
system.cpu.dcache.demandMshrMissLatency::cpu.data    870661500                       # number of demand (read+write) MSHR miss ticks (Tick)
system.cpu.dcache.demandMshrMissLatency::total    870661500                       # number of demand (read+write) MSHR miss ticks (Tick)
system.cpu.dcache.overallMshrMissLatency::cpu.data    870661500                       # number of overall MSHR miss ticks (Tick)
system.cpu.dcache.overallMshrMissLatency::total    870661500                       # number of overall MSHR miss ticks (Tick)
system.cpu.dcache.demandMshrMissRate::cpu.data     0.146229                       # mshr miss ratio for demand accesses (Ratio)
system.cpu.dcache.demandMshrMissRate::total     0.146229                       # mshr miss ratio for demand accesses (Ratio)
system.cpu.dcache.overallMshrMissRate::cpu.data     0.146229                       # mshr miss ratio for overall accesses (Ratio)
system.cpu.dcache.overallMshrMissRate::total     0.146229                       # mshr miss ratio for overall accesses (Ratio)
system.cpu.dcache.demandAvgMshrMissLatency::cpu.data 85025.537109                       # average overall mshr miss latency ((Tick/Count))
system.cpu.dcache.demandAvgMshrMissLatency::total 85025.537109                       # average overall mshr miss latency ((Tick/Count))
system.cpu.dcache.overallAvgMshrMissLatency::cpu.data 85025.537109                       # average overall mshr miss latency ((Tick/Count))
system.cpu.dcache.overallAvgMshrMissLatency::total 85025.537109                       # average overall mshr miss latency ((Tick/Count))
system.cpu.dcache.replacements                   9624                       # number of replacements (Count)
system.cpu.dcache.LoadLockedReq.hits::cpu.data            2                       # number of LoadLockedReq hits (Count)
system.cpu.dcache.LoadLockedReq.hits::total            2                       # number of LoadLockedReq hits (Count)
system.cpu.dcache.LoadLockedReq.misses::cpu.data            2                       # number of LoadLockedReq misses (Count)
system.cpu.dcache.LoadLockedReq.misses::total            2                       # number of LoadLockedReq misses (Count)
system.cpu.dcache.LoadLockedReq.missLatency::cpu.data       172000                       # number of LoadLockedReq miss ticks (Tick)
system.cpu.dcache.LoadLockedReq.missLatency::total       172000                       # number of LoadLockedReq miss ticks (Tick)
system.cpu.dcache.LoadLockedReq.accesses::cpu.data            4                       # number of LoadLockedReq accesses(hits+misses) (Count)
system.cpu.dcache.LoadLockedReq.accesses::total            4                       # number of LoadLockedReq accesses(hits+misses) (Count)
system.cpu.dcache.LoadLockedReq.missRate::cpu.data     0.500000                       # miss rate for LoadLockedReq accesses (Ratio)
system.cpu.dcache.LoadLockedReq.missRate::total     0.500000                       # miss rate for LoadLockedReq accesses (Ratio)
system.cpu.dcache.LoadLockedReq.avgMissLatency::cpu.data        86000                       # average LoadLockedReq miss latency ((Tick/Count))
system.cpu.dcache.LoadLockedReq.avgMissLatency::total        86000                       # average LoadLockedReq miss latency ((Tick/Count))
system.cpu.dcache.LoadLockedReq.mshrMisses::cpu.data            2                       # number of LoadLockedReq MSHR misses (Count)
system.cpu.dcache.LoadLockedReq.mshrMisses::total            2                       # number of LoadLockedReq MSHR misses (Count)
system.cpu.dcache.LoadLockedReq.mshrMissLatency::cpu.data       170000                       # number of LoadLockedReq MSHR miss ticks (Tick)
system.cpu.dcache.LoadLockedReq.mshrMissLatency::total       170000                       # number of LoadLockedReq MSHR miss ticks (Tick)
system.cpu.dcache.LoadLockedReq.mshrMissRate::cpu.data     0.500000                       # mshr miss rate for LoadLockedReq accesses (Ratio)
system.cpu.dcache.LoadLockedReq.mshrMissRate::total     0.500000                       # mshr miss rate for LoadLockedReq accesses (Ratio)
system.cpu.dcache.LoadLockedReq.avgMshrMissLatency::cpu.data        85000                       # average LoadLockedReq mshr miss latency ((Tick/Count))
system.cpu.dcache.LoadLockedReq.avgMshrMissLatency::total        85000                       # average LoadLockedReq mshr miss latency ((Tick/Count))
system.cpu.dcache.ReadReq.hits::cpu.data        49273                       # number of ReadReq hits (Count)
system.cpu.dcache.ReadReq.hits::total           49273                       # number of ReadReq hits (Count)
system.cpu.dcache.ReadReq.misses::cpu.data          216                       # number of ReadReq misses (Count)
system.cpu.dcache.ReadReq.misses::total           216                       # number of ReadReq misses (Count)
system.cpu.dcache.ReadReq.missLatency::cpu.data     17393500                       # number of ReadReq miss ticks (Tick)
system.cpu.dcache.ReadReq.missLatency::total     17393500                       # number of ReadReq miss ticks (Tick)
system.cpu.dcache.ReadReq.accesses::cpu.data        49489                       # number of ReadReq accesses(hits+misses) (Count)
system.cpu.dcache.ReadReq.accesses::total        49489                       # number of ReadReq accesses(hits+misses) (Count)
system.cpu.dcache.ReadReq.missRate::cpu.data     0.004365                       # miss rate for ReadReq accesses (Ratio)
system.cpu.dcache.ReadReq.missRate::total     0.004365                       # miss rate for ReadReq accesses (Ratio)
system.cpu.dcache.ReadReq.avgMissLatency::cpu.data 80525.462963                       # average ReadReq miss latency ((Tick/Count))
system.cpu.dcache.ReadReq.avgMissLatency::total 80525.462963                       # average ReadReq miss latency ((Tick/Count))
system.cpu.dcache.ReadReq.mshrHits::cpu.data            6                       # number of ReadReq MSHR hits (Count)
system.cpu.dcache.ReadReq.mshrHits::total            6                       # number of ReadReq MSHR hits (Count)
system.cpu.dcache.ReadReq.mshrMisses::cpu.data          210                       # number of ReadReq MSHR misses (Count)
system.cpu.dcache.ReadReq.mshrMisses::total          210                       # number of ReadReq MSHR misses (Count)
system.cpu.dcache.ReadReq.mshrMissLatency::cpu.data     16907000                       # number of ReadReq MSHR miss ticks (Tick)
system.cpu.dcache.ReadReq.mshrMissLatency::total     16907000                       # number of ReadReq MSHR miss ticks (Tick)
system.cpu.dcache.ReadReq.mshrMissRate::cpu.data     0.004243                       # mshr miss rate for ReadReq accesses (Ratio)
system.cpu.dcache.ReadReq.mshrMissRate::total     0.004243                       # mshr miss rate for ReadReq accesses (Ratio)
system.cpu.dcache.ReadReq.avgMshrMissLatency::cpu.data 80509.523810                       # average ReadReq mshr miss latency ((Tick/Count))
system.cpu.dcache.ReadReq.avgMshrMissLatency::total 80509.523810                       # average ReadReq mshr miss latency ((Tick/Count))
system.cpu.dcache.StoreCondReq.hits::cpu.data            4                       # number of StoreCondReq hits (Count)
system.cpu.dcache.StoreCondReq.hits::total            4                       # number of StoreCondReq hits (Count)
system.cpu.dcache.StoreCondReq.accesses::cpu.data            4                       # number of StoreCondReq accesses(hits+misses) (Count)
system.cpu.dcache.StoreCondReq.accesses::total            4                       # number of StoreCondReq accesses(hits+misses) (Count)
system.cpu.dcache.SwapReq.hits::cpu.data            5                       # number of SwapReq hits (Count)
system.cpu.dcache.SwapReq.hits::total               5                       # number of SwapReq hits (Count)
system.cpu.dcache.SwapReq.misses::cpu.data            1                       # number of SwapReq misses (Count)
system.cpu.dcache.SwapReq.misses::total             1                       # number of SwapReq misses (Count)
system.cpu.dcache.SwapReq.missLatency::cpu.data        72500                       # number of SwapReq miss ticks (Tick)
system.cpu.dcache.SwapReq.missLatency::total        72500                       # number of SwapReq miss ticks (Tick)
system.cpu.dcache.SwapReq.accesses::cpu.data            6                       # number of SwapReq accesses(hits+misses) (Count)
system.cpu.dcache.SwapReq.accesses::total            6                       # number of SwapReq accesses(hits+misses) (Count)
system.cpu.dcache.SwapReq.missRate::cpu.data     0.166667                       # miss rate for SwapReq accesses (Ratio)
system.cpu.dcache.SwapReq.missRate::total     0.166667                       # miss rate for SwapReq accesses (Ratio)
system.cpu.dcache.SwapReq.avgMissLatency::cpu.data        72500                       # average SwapReq miss latency ((Tick/Count))
system.cpu.dcache.SwapReq.avgMissLatency::total        72500                       # average SwapReq miss latency ((Tick/Count))
system.cpu.dcache.SwapReq.mshrMisses::cpu.data            1                       # number of SwapReq MSHR misses (Count)
system.cpu.dcache.SwapReq.mshrMisses::total            1                       # number of SwapReq MSHR misses (Count)
system.cpu.dcache.SwapReq.mshrMissLatency::cpu.data        71500                       # number of SwapReq MSHR miss ticks (Tick)
system.cpu.dcache.SwapReq.mshrMissLatency::total        71500                       # number of SwapReq MSHR miss ticks (Tick)
system.cpu.dcache.SwapReq.mshrMissRate::cpu.data     0.166667                       # mshr miss rate for SwapReq accesses (Ratio)
system.cpu.dcache.SwapReq.mshrMissRate::total     0.166667                       # mshr miss rate for SwapReq accesses (Ratio)
system.cpu.dcache.SwapReq.avgMshrMissLatency::cpu.data        71500                       # average SwapReq mshr miss latency ((Tick/Count))
system.cpu.dcache.SwapReq.avgMshrMissLatency::total        71500                       # average SwapReq mshr miss latency ((Tick/Count))
system.cpu.dcache.WriteLineReq.misses::cpu.data           28                       # number of WriteLineReq misses (Count)
system.cpu.dcache.WriteLineReq.misses::total           28                       # number of WriteLineReq misses (Count)
system.cpu.dcache.WriteLineReq.missLatency::cpu.data       885000                       # number of WriteLineReq miss ticks (Tick)
system.cpu.dcache.WriteLineReq.missLatency::total       885000                       # number of WriteLineReq miss ticks (Tick)
system.cpu.dcache.WriteLineReq.accesses::cpu.data           28                       # number of WriteLineReq accesses(hits+misses) (Count)
system.cpu.dcache.WriteLineReq.accesses::total           28                       # number of WriteLineReq accesses(hits+misses) (Count)
system.cpu.dcache.WriteLineReq.missRate::cpu.data            1                       # miss rate for WriteLineReq accesses (Ratio)
system.cpu.dcache.WriteLineReq.missRate::total            1                       # miss rate for WriteLineReq accesses (Ratio)
system.cpu.dcache.WriteLineReq.avgMissLatency::cpu.data 31607.142857                       # average WriteLineReq miss latency ((Tick/Count))
system.cpu.dcache.WriteLineReq.avgMissLatency::total 31607.142857                       # average WriteLineReq miss latency ((Tick/Count))
system.cpu.dcache.WriteLineReq.mshrMisses::cpu.data           28                       # number of WriteLineReq MSHR misses (Count)
system.cpu.dcache.WriteLineReq.mshrMisses::total           28                       # number of WriteLineReq MSHR misses (Count)
system.cpu.dcache.WriteLineReq.mshrMissLatency::cpu.data       857000                       # number of WriteLineReq MSHR miss ticks (Tick)
system.cpu.dcache.WriteLineReq.mshrMissLatency::total       857000                       # number of WriteLineReq MSHR miss ticks (Tick)
system.cpu.dcache.WriteLineReq.mshrMissRate::cpu.data            1                       # mshr miss rate for WriteLineReq accesses (Ratio)
system.cpu.dcache.WriteLineReq.mshrMissRate::total            1                       # mshr miss rate for WriteLineReq accesses (Ratio)
system.cpu.dcache.WriteLineReq.avgMshrMissLatency::cpu.data 30607.142857                       # average WriteLineReq mshr miss latency ((Tick/Count))
system.cpu.dcache.WriteLineReq.avgMshrMissLatency::total 30607.142857                       # average WriteLineReq mshr miss latency ((Tick/Count))
system.cpu.dcache.WriteReq.hits::cpu.data        10270                       # number of WriteReq hits (Count)
system.cpu.dcache.WriteReq.hits::total          10270                       # number of WriteReq hits (Count)
system.cpu.dcache.WriteReq.misses::cpu.data        10240                       # number of WriteReq misses (Count)
system.cpu.dcache.WriteReq.misses::total        10240                       # number of WriteReq misses (Count)
system.cpu.dcache.WriteReq.missLatency::cpu.data    871050000                       # number of WriteReq miss ticks (Tick)
system.cpu.dcache.WriteReq.missLatency::total    871050000                       # number of WriteReq miss ticks (Tick)
system.cpu.dcache.WriteReq.accesses::cpu.data        20510                       # number of WriteReq accesses(hits+misses) (Count)
system.cpu.dcache.WriteReq.accesses::total        20510                       # number of WriteReq accesses(hits+misses) (Count)
system.cpu.dcache.WriteReq.missRate::cpu.data     0.499269                       # miss rate for WriteReq accesses (Ratio)
system.cpu.dcache.WriteReq.missRate::total     0.499269                       # miss rate for WriteReq accesses (Ratio)
system.cpu.dcache.WriteReq.avgMissLatency::cpu.data 85063.476562                       # average WriteReq miss latency ((Tick/Count))
system.cpu.dcache.WriteReq.avgMissLatency::total 85063.476562                       # average WriteReq miss latency ((Tick/Count))
system.cpu.dcache.WriteReq.mshrHits::cpu.data          238                       # number of WriteReq MSHR hits (Count)
system.cpu.dcache.WriteReq.mshrHits::total          238                       # number of WriteReq MSHR hits (Count)
system.cpu.dcache.WriteReq.mshrMisses::cpu.data        10002                       # number of WriteReq MSHR misses (Count)
system.cpu.dcache.WriteReq.mshrMisses::total        10002                       # number of WriteReq MSHR misses (Count)
system.cpu.dcache.WriteReq.mshrMissLatency::cpu.data    852897500                       # number of WriteReq MSHR miss ticks (Tick)
system.cpu.dcache.WriteReq.mshrMissLatency::total    852897500                       # number of WriteReq MSHR miss ticks (Tick)
system.cpu.dcache.WriteReq.mshrMissRate::cpu.data     0.487665                       # mshr miss rate for WriteReq accesses (Ratio)
system.cpu.dcache.WriteReq.mshrMissRate::total     0.487665                       # mshr miss rate for WriteReq accesses (Ratio)
system.cpu.dcache.WriteReq.avgMshrMissLatency::cpu.data 85272.695461                       # average WriteReq mshr miss latency ((Tick/Count))
system.cpu.dcache.WriteReq.avgMshrMissLatency::total 85272.695461                       # average WriteReq mshr miss latency ((Tick/Count))
system.cpu.dcache.power_state.pwrStateResidencyTicks::UNDEFINED    587688000                       # Cumulative time (in ticks) in various power states (Tick)
system.cpu.dcache.tags.tagsInUse           572.087244                       # Average ticks per tags in use ((Tick/Count))
system.cpu.dcache.tags.totalRefs                69795                       # Total number of references to valid blocks. (Count)
system.cpu.dcache.tags.sampledRefs              10241                       # Sample count of references to valid blocks. (Count)
system.cpu.dcache.tags.avgRefs               6.815252                       # Average number of references to valid blocks. ((Count/Count))
system.cpu.dcache.tags.warmupTick              249500                       # The tick when the warmup percentage was hit. (Tick)
system.cpu.dcache.tags.occupancies::cpu.data   572.087244                       # Average occupied blocks per tick, per requestor ((Count/Tick))
system.cpu.dcache.tags.avgOccs::cpu.data     0.139670                       # Average percentage of cache occupancy ((Ratio/Tick))
system.cpu.dcache.tags.avgOccs::total        0.139670                       # Average percentage of cache occupancy ((Ratio/Tick))
system.cpu.dcache.tags.occupanciesTaskId::1024          617                       # Occupied blocks per task id (Count)
system.cpu.dcache.tags.ageTaskId_1024::0           63                       # Occupied blocks per task id, per block age (Count)
system.cpu.dcache.tags.ageTaskId_1024::2          554                       # Occupied blocks per task id, per block age (Count)
system.cpu.dcache.tags.ratioOccsTaskId::1024     0.150635                       # Ratio of occupied blocks and all blocks, per task id (Ratio)
system.cpu.dcache.tags.tagAccesses             150323                       # Number of tag accesses (Count)
system.cpu.dcache.tags.dataAccesses            150323                       # Number of data accesses (Count)
system.cpu.dcache.tags.power_state.pwrStateResidencyTicks::UNDEFINED    587688000                       # Cumulative time (in ticks) in various power states (Tick)
system.cpu.fetch2.intInstructions              126152                       # Number of integer instructions successfully decoded (Count)
system.cpu.fetch2.fpInstructions                    0                       # Number of floating point instructions successfully decoded (Count)
system.cpu.fetch2.vecInstructions                  37                       # Number of SIMD instructions successfully decoded (Count)
system.cpu.fetch2.loadInstructions              73660                       # Number of memory load instructions successfully decoded (Count)
system.cpu.fetch2.storeInstructions             27052                       # Number of memory store instructions successfully decoded (Count)
system.cpu.fetch2.amoInstructions                   7                       # Number of memory atomic instructions successfully decoded (Count)
system.cpu.icache.demandHits::cpu.inst          87345                       # number of demand (read+write) hits (Count)
system.cpu.icache.demandHits::total             87345                       # number of demand (read+write) hits (Count)
system.cpu.icache.overallHits::cpu.inst         87345                       # number of overall hits (Count)
system.cpu.icache.overallHits::total            87345                       # number of overall hits (Count)
system.cpu.icache.demandMisses::cpu.inst         1092                       # number of demand (read+write) misses (Count)
system.cpu.icache.demandMisses::total            1092                       # number of demand (read+write) misses (Count)
system.cpu.icache.overallMisses::cpu.inst         1092                       # number of overall misses (Count)
system.cpu.icache.overallMisses::total           1092                       # number of overall misses (Count)
system.cpu.icache.demandMissLatency::cpu.inst     84205000                       # number of demand (read+write) miss ticks (Tick)
system.cpu.icache.demandMissLatency::total     84205000                       # number of demand (read+write) miss ticks (Tick)
system.cpu.icache.overallMissLatency::cpu.inst     84205000                       # number of overall miss ticks (Tick)
system.cpu.icache.overallMissLatency::total     84205000                       # number of overall miss ticks (Tick)
system.cpu.icache.demandAccesses::cpu.inst        88437                       # number of demand (read+write) accesses (Count)
system.cpu.icache.demandAccesses::total         88437                       # number of demand (read+write) accesses (Count)
system.cpu.icache.overallAccesses::cpu.inst        88437                       # number of overall (read+write) accesses (Count)
system.cpu.icache.overallAccesses::total        88437                       # number of overall (read+write) accesses (Count)
system.cpu.icache.demandMissRate::cpu.inst     0.012348                       # miss rate for demand accesses (Ratio)
system.cpu.icache.demandMissRate::total      0.012348                       # miss rate for demand accesses (Ratio)
system.cpu.icache.overallMissRate::cpu.inst     0.012348                       # miss rate for overall accesses (Ratio)
system.cpu.icache.overallMissRate::total     0.012348                       # miss rate for overall accesses (Ratio)
system.cpu.icache.demandAvgMissLatency::cpu.inst 77110.805861                       # average overall miss latency in ticks ((Tick/Count))
system.cpu.icache.demandAvgMissLatency::total 77110.805861                       # average overall miss latency in ticks ((Tick/Count))
system.cpu.icache.overallAvgMissLatency::cpu.inst 77110.805861                       # average overall miss latency ((Tick/Count))
system.cpu.icache.overallAvgMissLatency::total 77110.805861                       # average overall miss latency ((Tick/Count))
system.cpu.icache.blockedCycles::no_mshrs            0                       # number of cycles access was blocked (Cycle)
system.cpu.icache.blockedCycles::no_targets            0                       # number of cycles access was blocked (Cycle)
system.cpu.icache.blockedCauses::no_mshrs            0                       # number of times access was blocked (Count)
system.cpu.icache.blockedCauses::no_targets            0                       # number of times access was blocked (Count)
system.cpu.icache.avgBlocked::no_mshrs            nan                       # average number of cycles each access was blocked ((Cycle/Count))
system.cpu.icache.avgBlocked::no_targets          nan                       # average number of cycles each access was blocked ((Cycle/Count))
system.cpu.icache.writebacks::writebacks          174                       # number of writebacks (Count)
system.cpu.icache.writebacks::total               174                       # number of writebacks (Count)
system.cpu.icache.demandMshrMisses::cpu.inst         1092                       # number of demand (read+write) MSHR misses (Count)
system.cpu.icache.demandMshrMisses::total         1092                       # number of demand (read+write) MSHR misses (Count)
system.cpu.icache.overallMshrMisses::cpu.inst         1092                       # number of overall MSHR misses (Count)
system.cpu.icache.overallMshrMisses::total         1092                       # number of overall MSHR misses (Count)
system.cpu.icache.demandMshrMissLatency::cpu.inst     83113000                       # number of demand (read+write) MSHR miss ticks (Tick)
system.cpu.icache.demandMshrMissLatency::total     83113000                       # number of demand (read+write) MSHR miss ticks (Tick)
system.cpu.icache.overallMshrMissLatency::cpu.inst     83113000                       # number of overall MSHR miss ticks (Tick)
system.cpu.icache.overallMshrMissLatency::total     83113000                       # number of overall MSHR miss ticks (Tick)
system.cpu.icache.demandMshrMissRate::cpu.inst     0.012348                       # mshr miss ratio for demand accesses (Ratio)
system.cpu.icache.demandMshrMissRate::total     0.012348                       # mshr miss ratio for demand accesses (Ratio)
system.cpu.icache.overallMshrMissRate::cpu.inst     0.012348                       # mshr miss ratio for overall accesses (Ratio)
system.cpu.icache.overallMshrMissRate::total     0.012348                       # mshr miss ratio for overall accesses (Ratio)
system.cpu.icache.demandAvgMshrMissLatency::cpu.inst 76110.805861                       # average overall mshr miss latency ((Tick/Count))
system.cpu.icache.demandAvgMshrMissLatency::total 76110.805861                       # average overall mshr miss latency ((Tick/Count))
system.cpu.icache.overallAvgMshrMissLatency::cpu.inst 76110.805861                       # average overall mshr miss latency ((Tick/Count))
system.cpu.icache.overallAvgMshrMissLatency::total 76110.805861                       # average overall mshr miss latency ((Tick/Count))
system.cpu.icache.replacements                    174                       # number of replacements (Count)
system.cpu.icache.ReadReq.hits::cpu.inst        87345                       # number of ReadReq hits (Count)
system.cpu.icache.ReadReq.hits::total           87345                       # number of ReadReq hits (Count)
system.cpu.icache.ReadReq.misses::cpu.inst         1092                       # number of ReadReq misses (Count)
system.cpu.icache.ReadReq.misses::total          1092                       # number of ReadReq misses (Count)
system.cpu.icache.ReadReq.missLatency::cpu.inst     84205000                       # number of ReadReq miss ticks (Tick)
system.cpu.icache.ReadReq.missLatency::total     84205000                       # number of ReadReq miss ticks (Tick)
system.cpu.icache.ReadReq.accesses::cpu.inst        88437                       # number of ReadReq accesses(hits+misses) (Count)
system.cpu.icache.ReadReq.accesses::total        88437                       # number of ReadReq accesses(hits+misses) (Count)
system.cpu.icache.ReadReq.missRate::cpu.inst     0.012348                       # miss rate for ReadReq accesses (Ratio)
system.cpu.icache.ReadReq.missRate::total     0.012348                       # miss rate for ReadReq accesses (Ratio)
system.cpu.icache.ReadReq.avgMissLatency::cpu.inst 77110.805861                       # average ReadReq miss latency ((Tick/Count))
system.cpu.icache.ReadReq.avgMissLatency::total 77110.805861                       # average ReadReq miss latency ((Tick/Count))
system.cpu.icache.ReadReq.mshrMisses::cpu.inst         1092                       # number of ReadReq MSHR misses (Count)
system.cpu.icache.ReadReq.mshrMisses::total         1092                       # number of ReadReq MSHR misses (Count)
system.cpu.icache.ReadReq.mshrMissLatency::cpu.inst     83113000                       # number of ReadReq MSHR miss ticks (Tick)
system.cpu.icache.ReadReq.mshrMissLatency::total     83113000                       # number of ReadReq MSHR miss ticks (Tick)
system.cpu.icache.ReadReq.mshrMissRate::cpu.inst     0.012348                       # mshr miss rate for ReadReq accesses (Ratio)
system.cpu.icache.ReadReq.mshrMissRate::total     0.012348                       # mshr miss rate for ReadReq accesses (Ratio)
system.cpu.icache.ReadReq.avgMshrMissLatency::cpu.inst 76110.805861                       # average ReadReq mshr miss latency ((Tick/Count))
system.cpu.icache.ReadReq.avgMshrMissLatency::total 76110.805861                       # average ReadReq mshr miss latency ((Tick/Count))
system.cpu.icache.power_state.pwrStateResidencyTicks::UNDEFINED    587688000                       # Cumulative time (in ticks) in various power states (Tick)
system.cpu.icache.tags.tagsInUse           847.791811                       # Average ticks per tags in use ((Tick/Count))
system.cpu.icache.tags.totalRefs                88437                       # Total number of references to valid blocks. (Count)
system.cpu.icache.tags.sampledRefs               1092                       # Sample count of references to valid blocks. (Count)
system.cpu.icache.tags.avgRefs              80.986264                       # Average number of references to valid blocks. ((Count/Count))
system.cpu.icache.tags.warmupTick               87500                       # The tick when the warmup percentage was hit. (Tick)
system.cpu.icache.tags.occupancies::cpu.inst   847.791811                       # Average occupied blocks per tick, per requestor ((Count/Tick))
system.cpu.icache.tags.avgOccs::cpu.inst     0.413961                       # Average percentage of cache occupancy ((Ratio/Tick))
system.cpu.icache.tags.avgOccs::total        0.413961                       # Average percentage of cache occupancy ((Ratio/Tick))
system.cpu.icache.tags.occupanciesTaskId::1024          918                       # Occupied blocks per task id (Count)
system.cpu.icache.tags.ageTaskId_1024::2          918                       # Occupied blocks per task id, per block age (Count)
system.cpu.icache.tags.ratioOccsTaskId::1024     0.448242                       # Ratio of occupied blocks and all blocks, per task id (Ratio)
system.cpu.icache.tags.tagAccesses             177966                       # Number of tag accesses (Count)
system.cpu.icache.tags.dataAccesses            177966                       # Number of data accesses (Count)
system.cpu.icache.tags.power_state.pwrStateResidencyTicks::UNDEFINED    587688000                       # Cumulative time (in ticks) in various power states (Tick)
system.cpu.mmu.alignFaults                          0                       # Number of MMU faults due to alignment restrictions (Count)
system.cpu.mmu.prefetchFaults                       0                       # Number of MMU faults due to prefetch (Count)
system.cpu.mmu.domainFaults                         0                       # Number of MMU faults due to domain restrictions (Count)
system.cpu.mmu.permsFaults                          0                       # Number of MMU faults due to permissions restrictions (Count)
system.cpu.mmu.dtb.readHits                         0                       # Read hits (Count)
system.cpu.mmu.dtb.readMisses                       0                       # Read misses (Count)
system.cpu.mmu.dtb.writeHits                        0                       # Write hits (Count)
system.cpu.mmu.dtb.writeMisses                      0                       # Write misses (Count)
system.cpu.mmu.dtb.inserts                          0                       # Number of times an entry is inserted into the TLB (Count)
system.cpu.mmu.dtb.flushTlb                         0                       # Number of times complete TLB was flushed (Count)
system.cpu.mmu.dtb.flushTlbMva                      0                       # Number of times TLB was flushed by MVA (Count)
system.cpu.mmu.dtb.flushTlbMvaAsid                  0                       # Number of times TLB was flushed by MVA & ASID (Count)
system.cpu.mmu.dtb.flushTlbAsid                     0                       # Number of times TLB was flushed by ASID (Count)
system.cpu.mmu.dtb.flushedEntries                   0                       # Number of entries that have been flushed from TLB (Count)
system.cpu.mmu.dtb.readAccesses                     0                       # Read accesses (Count)
system.cpu.mmu.dtb.writeAccesses                    0                       # Write accesses (Count)
system.cpu.mmu.dtb.hits                             0                       # Total TLB (inst and data) hits (Count)
system.cpu.mmu.dtb.misses                           0                       # Total TLB (inst and data) misses (Count)
system.cpu.mmu.dtb.accesses                         0                       # Total TLB (inst and data) accesses (Count)
system.cpu.mmu.dtb_walker.walks                     0                       # Table walker walks requested (Count)
system.cpu.mmu.dtb_walker.requestOrigin_Requested::Data            0                       # Table walker requests started/completed, data/inst (Count)
system.cpu.mmu.dtb_walker.requestOrigin_Requested::Inst            0                       # Table walker requests started/completed, data/inst (Count)
system.cpu.mmu.dtb_walker.requestOrigin_Requested::total            0                       # Table walker requests started/completed, data/inst (Count)
system.cpu.mmu.dtb_walker.requestOrigin_Completed::Data            0                       # Table walker requests started/completed, data/inst (Count)
system.cpu.mmu.dtb_walker.requestOrigin_Completed::Inst            0                       # Table walker requests started/completed, data/inst (Count)
system.cpu.mmu.dtb_walker.requestOrigin_Completed::total            0                       # Table walker requests started/completed, data/inst (Count)
system.cpu.mmu.dtb_walker.requestOrigin::total            0                       # Table walker requests started/completed, data/inst (Count)
system.cpu.mmu.dtb_walker.power_state.pwrStateResidencyTicks::UNDEFINED    587688000                       # Cumulative time (in ticks) in various power states (Tick)
system.cpu.mmu.itb.instHits                         0                       # Inst hits (Count)
system.cpu.mmu.itb.instMisses                       0                       # Inst misses (Count)
system.cpu.mmu.itb.inserts                          0                       # Number of times an entry is inserted into the TLB (Count)
system.cpu.mmu.itb.flushTlb                         0                       # Number of times complete TLB was flushed (Count)
system.cpu.mmu.itb.flushTlbMva                      0                       # Number of times TLB was flushed by MVA (Count)
system.cpu.mmu.itb.flushTlbMvaAsid                  0                       # Number of times TLB was flushed by MVA & ASID (Count)
system.cpu.mmu.itb.flushTlbAsid                     0                       # Number of times TLB was flushed by ASID (Count)
system.cpu.mmu.itb.flushedEntries                   0                       # Number of entries that have been flushed from TLB (Count)
system.cpu.mmu.itb.instAccesses                     0                       # Inst accesses (Count)
system.cpu.mmu.itb.hits                             0                       # Total TLB (inst and data) hits (Count)
system.cpu.mmu.itb.misses                           0                       # Total TLB (inst and data) misses (Count)
system.cpu.mmu.itb.accesses                         0                       # Total TLB (inst and data) accesses (Count)
system.cpu.mmu.itb_walker.walks                     0                       # Table walker walks requested (Count)
system.cpu.mmu.itb_walker.requestOrigin_Requested::Data            0                       # Table walker requests started/completed, data/inst (Count)
system.cpu.mmu.itb_walker.requestOrigin_Requested::Inst            0                       # Table walker requests started/completed, data/inst (Count)
system.cpu.mmu.itb_walker.requestOrigin_Requested::total            0                       # Table walker requests started/completed, data/inst (Count)
system.cpu.mmu.itb_walker.requestOrigin_Completed::Data            0                       # Table walker requests started/completed, data/inst (Count)
system.cpu.mmu.itb_walker.requestOrigin_Completed::Inst            0                       # Table walker requests started/completed, data/inst (Count)
system.cpu.mmu.itb_walker.requestOrigin_Completed::total            0                       # Table walker requests started/completed, data/inst (Count)
system.cpu.mmu.itb_walker.requestOrigin::total            0                       # Table walker requests started/completed, data/inst (Count)
system.cpu.mmu.itb_walker.power_state.pwrStateResidencyTicks::UNDEFINED    587688000                       # Cumulative time (in ticks) in various power states (Tick)
system.cpu.mmu.l2_shared.instHits                   0                       # Inst hits (Count)
system.cpu.mmu.l2_shared.instMisses                 0                       # Inst misses (Count)
system.cpu.mmu.l2_shared.inserts                    0                       # Number of times an entry is inserted into the TLB (Count)
system.cpu.mmu.l2_shared.flushTlb                   0                       # Number of times complete TLB was flushed (Count)
system.cpu.mmu.l2_shared.flushTlbMva                0                       # Number of times TLB was flushed by MVA (Count)
system.cpu.mmu.l2_shared.flushTlbMvaAsid            0                       # Number of times TLB was flushed by MVA & ASID (Count)
system.cpu.mmu.l2_shared.flushTlbAsid               0                       # Number of times TLB was flushed by ASID (Count)
system.cpu.mmu.l2_shared.flushedEntries             0                       # Number of entries that have been flushed from TLB (Count)
system.cpu.mmu.l2_shared.instAccesses               0                       # Inst accesses (Count)
system.cpu.mmu.l2_shared.hits                       0                       # Total TLB (inst and data) hits (Count)
system.cpu.mmu.l2_shared.misses                     0                       # Total TLB (inst and data) misses (Count)
system.cpu.mmu.l2_shared.accesses                   0                       # Total TLB (inst and data) accesses (Count)
system.cpu.mmu.stage2_dtb.readHits                  0                       # Read hits (Count)
system.cpu.mmu.stage2_dtb.readMisses                0                       # Read misses (Count)
system.cpu.mmu.stage2_dtb.writeHits                 0                       # Write hits (Count)
system.cpu.mmu.stage2_dtb.writeMisses               0                       # Write misses (Count)
system.cpu.mmu.stage2_dtb.inserts                   0                       # Number of times an entry is inserted into the TLB (Count)
system.cpu.mmu.stage2_dtb.flushTlb                  0                       # Number of times complete TLB was flushed (Count)
system.cpu.mmu.stage2_dtb.flushTlbMva               0                       # Number of times TLB was flushed by MVA (Count)
system.cpu.mmu.stage2_dtb.flushTlbMvaAsid            0                       # Number of times TLB was flushed by MVA & ASID (Count)
system.cpu.mmu.stage2_dtb.flushTlbAsid              0                       # Number of times TLB was flushed by ASID (Count)
system.cpu.mmu.stage2_dtb.flushedEntries            0                       # Number of entries that have been flushed from TLB (Count)
system.cpu.mmu.stage2_dtb.readAccesses              0                       # Read accesses (Count)
system.cpu.mmu.stage2_dtb.writeAccesses             0                       # Write accesses (Count)
system.cpu.mmu.stage2_dtb.hits                      0                       # Total TLB (inst and data) hits (Count)
system.cpu.mmu.stage2_dtb.misses                    0                       # Total TLB (inst and data) misses (Count)
system.cpu.mmu.stage2_dtb.accesses                  0                       # Total TLB (inst and data) accesses (Count)
system.cpu.mmu.stage2_dtb_walker.walks              0                       # Table walker walks requested (Count)
system.cpu.mmu.stage2_dtb_walker.requestOrigin_Requested::Data            0                       # Table walker requests started/completed, data/inst (Count)
system.cpu.mmu.stage2_dtb_walker.requestOrigin_Requested::Inst            0                       # Table walker requests started/completed, data/inst (Count)
system.cpu.mmu.stage2_dtb_walker.requestOrigin_Requested::total            0                       # Table walker requests started/completed, data/inst (Count)
system.cpu.mmu.stage2_dtb_walker.requestOrigin_Completed::Data            0                       # Table walker requests started/completed, data/inst (Count)
system.cpu.mmu.stage2_dtb_walker.requestOrigin_Completed::Inst            0                       # Table walker requests started/completed, data/inst (Count)
system.cpu.mmu.stage2_dtb_walker.requestOrigin_Completed::total            0                       # Table walker requests started/completed, data/inst (Count)
system.cpu.mmu.stage2_dtb_walker.requestOrigin::total            0                       # Table walker requests started/completed, data/inst (Count)
system.cpu.mmu.stage2_dtb_walker.power_state.pwrStateResidencyTicks::UNDEFINED    587688000                       # Cumulative time (in ticks) in various power states (Tick)
system.cpu.mmu.stage2_itb.instHits                  0                       # Inst hits (Count)
system.cpu.mmu.stage2_itb.instMisses                0                       # Inst misses (Count)
system.cpu.mmu.stage2_itb.inserts                   0                       # Number of times an entry is inserted into the TLB (Count)
system.cpu.mmu.stage2_itb.flushTlb                  0                       # Number of times complete TLB was flushed (Count)
system.cpu.mmu.stage2_itb.flushTlbMva               0                       # Number of times TLB was flushed by MVA (Count)
system.cpu.mmu.stage2_itb.flushTlbMvaAsid            0                       # Number of times TLB was flushed by MVA & ASID (Count)
system.cpu.mmu.stage2_itb.flushTlbAsid              0                       # Number of times TLB was flushed by ASID (Count)
system.cpu.mmu.stage2_itb.flushedEntries            0                       # Number of entries that have been flushed from TLB (Count)
system.cpu.mmu.stage2_itb.instAccesses              0                       # Inst accesses (Count)
system.cpu.mmu.stage2_itb.hits                      0                       # Total TLB (inst and data) hits (Count)
system.cpu.mmu.stage2_itb.misses                    0                       # Total TLB (inst and data) misses (Count)
system.cpu.mmu.stage2_itb.accesses                  0                       # Total TLB (inst and data) accesses (Count)
system.cpu.mmu.stage2_itb_walker.walks              0                       # Table walker walks requested (Count)
system.cpu.mmu.stage2_itb_walker.requestOrigin_Requested::Data            0                       # Table walker requests started/completed, data/inst (Count)
system.cpu.mmu.stage2_itb_walker.requestOrigin_Requested::Inst            0                       # Table walker requests started/completed, data/inst (Count)
system.cpu.mmu.stage2_itb_walker.requestOrigin_Requested::total            0                       # Table walker requests started/completed, data/inst (Count)
system.cpu.mmu.stage2_itb_walker.requestOrigin_Completed::Data            0                       # Table walker requests started/completed, data/inst (Count)
system.cpu.mmu.stage2_itb_walker.requestOrigin_Completed::Inst            0                       # Table walker requests started/completed, data/inst (Count)
system.cpu.mmu.stage2_itb_walker.requestOrigin_Completed::total            0                       # Table walker requests started/completed, data/inst (Count)
system.cpu.mmu.stage2_itb_walker.requestOrigin::total            0                       # Table walker requests started/completed, data/inst (Count)
system.cpu.mmu.stage2_itb_walker.power_state.pwrStateResidencyTicks::UNDEFINED    587688000                       # Cumulative time (in ticks) in various power states (Tick)
system.cpu.power_state.pwrStateResidencyTicks::ON    587688000                       # Cumulative time (in ticks) in various power states (Tick)
system.cpu.thread_0.numInsts                   192292                       # Number of Instructions committed (Count)
system.cpu.thread_0.numOps                     193479                       # Number of Ops committed (Count)
system.cpu.thread_0.numMemRefs                      0                       # Number of Memory References (Count)
system.cpu.workload.numSyscalls                    14                       # Number of system calls (Count)
system.cpu_clk_domain.clock                       500                       # Clock period in ticks (Tick)
system.cpu_voltage_domain.voltage                   1                       # Voltage in Volts (Volt)
system.l2.demandHits::cpu.inst                      6                       # number of demand (read+write) hits (Count)
system.l2.demandHits::cpu.data                      2                       # number of demand (read+write) hits (Count)
system.l2.demandHits::total                         8                       # number of demand (read+write) hits (Count)
system.l2.overallHits::cpu.inst                     6                       # number of overall hits (Count)
system.l2.overallHits::cpu.data                     2                       # number of overall hits (Count)
system.l2.overallHits::total                        8                       # number of overall hits (Count)
system.l2.demandMisses::cpu.inst                 1086                       # number of demand (read+write) misses (Count)
system.l2.demandMisses::cpu.data                10009                       # number of demand (read+write) misses (Count)
system.l2.demandMisses::total                   11095                       # number of demand (read+write) misses (Count)
system.l2.overallMisses::cpu.inst                1086                       # number of overall misses (Count)
system.l2.overallMisses::cpu.data               10009                       # number of overall misses (Count)
system.l2.overallMisses::total                  11095                       # number of overall misses (Count)
system.l2.demandMissLatency::cpu.inst        81410500                       # number of demand (read+write) miss ticks (Tick)
system.l2.demandMissLatency::cpu.data       849130500                       # number of demand (read+write) miss ticks (Tick)
system.l2.demandMissLatency::total          930541000                       # number of demand (read+write) miss ticks (Tick)
system.l2.overallMissLatency::cpu.inst       81410500                       # number of overall miss ticks (Tick)
system.l2.overallMissLatency::cpu.data      849130500                       # number of overall miss ticks (Tick)
system.l2.overallMissLatency::total         930541000                       # number of overall miss ticks (Tick)
system.l2.demandAccesses::cpu.inst               1092                       # number of demand (read+write) accesses (Count)
system.l2.demandAccesses::cpu.data              10011                       # number of demand (read+write) accesses (Count)
system.l2.demandAccesses::total                 11103                       # number of demand (read+write) accesses (Count)
system.l2.overallAccesses::cpu.inst              1092                       # number of overall (read+write) accesses (Count)
system.l2.overallAccesses::cpu.data             10011                       # number of overall (read+write) accesses (Count)
system.l2.overallAccesses::total                11103                       # number of overall (read+write) accesses (Count)
system.l2.demandMissRate::cpu.inst           0.994505                       # miss rate for demand accesses (Ratio)
system.l2.demandMissRate::cpu.data           0.999800                       # miss rate for demand accesses (Ratio)
system.l2.demandMissRate::total              0.999279                       # miss rate for demand accesses (Ratio)
system.l2.overallMissRate::cpu.inst          0.994505                       # miss rate for overall accesses (Ratio)
system.l2.overallMissRate::cpu.data          0.999800                       # miss rate for overall accesses (Ratio)
system.l2.overallMissRate::total             0.999279                       # miss rate for overall accesses (Ratio)
system.l2.demandAvgMissLatency::cpu.inst 74963.627993                       # average overall miss latency in ticks ((Tick/Count))
system.l2.demandAvgMissLatency::cpu.data 84836.696973                       # average overall miss latency in ticks ((Tick/Count))
system.l2.demandAvgMissLatency::total    83870.301938                       # average overall miss latency in ticks ((Tick/Count))
system.l2.overallAvgMissLatency::cpu.inst 74963.627993                       # average overall miss latency ((Tick/Count))
system.l2.overallAvgMissLatency::cpu.data 84836.696973                       # average overall miss latency ((Tick/Count))
system.l2.overallAvgMissLatency::total   83870.301938                       # average overall miss latency ((Tick/Count))
system.l2.blockedCycles::no_mshrs                   0                       # number of cycles access was blocked (Cycle)
system.l2.blockedCycles::no_targets                 0                       # number of cycles access was blocked (Cycle)
system.l2.blockedCauses::no_mshrs                   0                       # number of times access was blocked (Count)
system.l2.blockedCauses::no_targets                 0                       # number of times access was blocked (Count)
system.l2.avgBlocked::no_mshrs                    nan                       # average number of cycles each access was blocked ((Cycle/Count))
system.l2.avgBlocked::no_targets                  nan                       # average number of cycles each access was blocked ((Cycle/Count))
system.l2.writebacks::writebacks                 7639                       # number of writebacks (Count)
system.l2.writebacks::total                      7639                       # number of writebacks (Count)
system.l2.demandMshrMisses::cpu.inst             1086                       # number of demand (read+write) MSHR misses (Count)
system.l2.demandMshrMisses::cpu.data            10009                       # number of demand (read+write) MSHR misses (Count)
system.l2.demandMshrMisses::total               11095                       # number of demand (read+write) MSHR misses (Count)
system.l2.overallMshrMisses::cpu.inst            1086                       # number of overall MSHR misses (Count)
system.l2.overallMshrMisses::cpu.data           10009                       # number of overall MSHR misses (Count)
system.l2.overallMshrMisses::total              11095                       # number of overall MSHR misses (Count)
system.l2.demandMshrMissLatency::cpu.inst     70550500                       # number of demand (read+write) MSHR miss ticks (Tick)
system.l2.demandMshrMissLatency::cpu.data    749040500                       # number of demand (read+write) MSHR miss ticks (Tick)
system.l2.demandMshrMissLatency::total      819591000                       # number of demand (read+write) MSHR miss ticks (Tick)
system.l2.overallMshrMissLatency::cpu.inst     70550500                       # number of overall MSHR miss ticks (Tick)
system.l2.overallMshrMissLatency::cpu.data    749040500                       # number of overall MSHR miss ticks (Tick)
system.l2.overallMshrMissLatency::total     819591000                       # number of overall MSHR miss ticks (Tick)
system.l2.demandMshrMissRate::cpu.inst       0.994505                       # mshr miss ratio for demand accesses (Ratio)
system.l2.demandMshrMissRate::cpu.data       0.999800                       # mshr miss ratio for demand accesses (Ratio)
system.l2.demandMshrMissRate::total          0.999279                       # mshr miss ratio for demand accesses (Ratio)
system.l2.overallMshrMissRate::cpu.inst      0.994505                       # mshr miss ratio for overall accesses (Ratio)
system.l2.overallMshrMissRate::cpu.data      0.999800                       # mshr miss ratio for overall accesses (Ratio)
system.l2.overallMshrMissRate::total         0.999279                       # mshr miss ratio for overall accesses (Ratio)
system.l2.demandAvgMshrMissLatency::cpu.inst 64963.627993                       # average overall mshr miss latency ((Tick/Count))
system.l2.demandAvgMshrMissLatency::cpu.data 74836.696973                       # average overall mshr miss latency ((Tick/Count))
system.l2.demandAvgMshrMissLatency::total 73870.301938                       # average overall mshr miss latency ((Tick/Count))
system.l2.overallAvgMshrMissLatency::cpu.inst 64963.627993                       # average overall mshr miss latency ((Tick/Count))
system.l2.overallAvgMshrMissLatency::cpu.data 74836.696973                       # average overall mshr miss latency ((Tick/Count))
system.l2.overallAvgMshrMissLatency::total 73870.301938                       # average overall mshr miss latency ((Tick/Count))
system.l2.replacements                           7659                       # number of replacements (Count)
system.l2.InvalidateReq.misses::cpu.data          232                       # number of InvalidateReq misses (Count)
system.l2.InvalidateReq.misses::total             232                       # number of InvalidateReq misses (Count)
system.l2.InvalidateReq.accesses::cpu.data          232                       # number of InvalidateReq accesses(hits+misses) (Count)
system.l2.InvalidateReq.accesses::total           232                       # number of InvalidateReq accesses(hits+misses) (Count)
system.l2.InvalidateReq.missRate::cpu.data            1                       # miss rate for InvalidateReq accesses (Ratio)
system.l2.InvalidateReq.missRate::total             1                       # miss rate for InvalidateReq accesses (Ratio)
system.l2.InvalidateReq.mshrMisses::cpu.data          232                       # number of InvalidateReq MSHR misses (Count)
system.l2.InvalidateReq.mshrMisses::total          232                       # number of InvalidateReq MSHR misses (Count)
system.l2.InvalidateReq.mshrMissLatency::cpu.data      4408000                       # number of InvalidateReq MSHR miss ticks (Tick)
system.l2.InvalidateReq.mshrMissLatency::total      4408000                       # number of InvalidateReq MSHR miss ticks (Tick)
system.l2.InvalidateReq.mshrMissRate::cpu.data            1                       # mshr miss rate for InvalidateReq accesses (Ratio)
system.l2.InvalidateReq.mshrMissRate::total            1                       # mshr miss rate for InvalidateReq accesses (Ratio)
system.l2.InvalidateReq.avgMshrMissLatency::cpu.data        19000                       # average InvalidateReq mshr miss latency ((Tick/Count))
system.l2.InvalidateReq.avgMshrMissLatency::total        19000                       # average InvalidateReq mshr miss latency ((Tick/Count))
system.l2.ReadCleanReq.hits::cpu.inst               6                       # number of ReadCleanReq hits (Count)
system.l2.ReadCleanReq.hits::total                  6                       # number of ReadCleanReq hits (Count)
system.l2.ReadCleanReq.misses::cpu.inst          1086                       # number of ReadCleanReq misses (Count)
system.l2.ReadCleanReq.misses::total             1086                       # number of ReadCleanReq misses (Count)
system.l2.ReadCleanReq.missLatency::cpu.inst     81410500                       # number of ReadCleanReq miss ticks (Tick)
system.l2.ReadCleanReq.missLatency::total     81410500                       # number of ReadCleanReq miss ticks (Tick)
system.l2.ReadCleanReq.accesses::cpu.inst         1092                       # number of ReadCleanReq accesses(hits+misses) (Count)
system.l2.ReadCleanReq.accesses::total           1092                       # number of ReadCleanReq accesses(hits+misses) (Count)
system.l2.ReadCleanReq.missRate::cpu.inst     0.994505                       # miss rate for ReadCleanReq accesses (Ratio)
system.l2.ReadCleanReq.missRate::total       0.994505                       # miss rate for ReadCleanReq accesses (Ratio)
system.l2.ReadCleanReq.avgMissLatency::cpu.inst 74963.627993                       # average ReadCleanReq miss latency ((Tick/Count))
system.l2.ReadCleanReq.avgMissLatency::total 74963.627993                       # average ReadCleanReq miss latency ((Tick/Count))
system.l2.ReadCleanReq.mshrMisses::cpu.inst         1086                       # number of ReadCleanReq MSHR misses (Count)
system.l2.ReadCleanReq.mshrMisses::total         1086                       # number of ReadCleanReq MSHR misses (Count)
system.l2.ReadCleanReq.mshrMissLatency::cpu.inst     70550500                       # number of ReadCleanReq MSHR miss ticks (Tick)
system.l2.ReadCleanReq.mshrMissLatency::total     70550500                       # number of ReadCleanReq MSHR miss ticks (Tick)
system.l2.ReadCleanReq.mshrMissRate::cpu.inst     0.994505                       # mshr miss rate for ReadCleanReq accesses (Ratio)
system.l2.ReadCleanReq.mshrMissRate::total     0.994505                       # mshr miss rate for ReadCleanReq accesses (Ratio)
system.l2.ReadCleanReq.avgMshrMissLatency::cpu.inst 64963.627993                       # average ReadCleanReq mshr miss latency ((Tick/Count))
system.l2.ReadCleanReq.avgMshrMissLatency::total 64963.627993                       # average ReadCleanReq mshr miss latency ((Tick/Count))
system.l2.ReadExReq.misses::cpu.data             9799                       # number of ReadExReq misses (Count)
system.l2.ReadExReq.misses::total                9799                       # number of ReadExReq misses (Count)
system.l2.ReadExReq.missLatency::cpu.data    832399000                       # number of ReadExReq miss ticks (Tick)
system.l2.ReadExReq.missLatency::total      832399000                       # number of ReadExReq miss ticks (Tick)
system.l2.ReadExReq.accesses::cpu.data           9799                       # number of ReadExReq accesses(hits+misses) (Count)
system.l2.ReadExReq.accesses::total              9799                       # number of ReadExReq accesses(hits+misses) (Count)
system.l2.ReadExReq.missRate::cpu.data              1                       # miss rate for ReadExReq accesses (Ratio)
system.l2.ReadExReq.missRate::total                 1                       # miss rate for ReadExReq accesses (Ratio)
system.l2.ReadExReq.avgMissLatency::cpu.data 84947.341565                       # average ReadExReq miss latency ((Tick/Count))
system.l2.ReadExReq.avgMissLatency::total 84947.341565                       # average ReadExReq miss latency ((Tick/Count))
system.l2.ReadExReq.mshrMisses::cpu.data         9799                       # number of ReadExReq MSHR misses (Count)
system.l2.ReadExReq.mshrMisses::total            9799                       # number of ReadExReq MSHR misses (Count)
system.l2.ReadExReq.mshrMissLatency::cpu.data    734409000                       # number of ReadExReq MSHR miss ticks (Tick)
system.l2.ReadExReq.mshrMissLatency::total    734409000                       # number of ReadExReq MSHR miss ticks (Tick)
system.l2.ReadExReq.mshrMissRate::cpu.data            1                       # mshr miss rate for ReadExReq accesses (Ratio)
system.l2.ReadExReq.mshrMissRate::total             1                       # mshr miss rate for ReadExReq accesses (Ratio)
system.l2.ReadExReq.avgMshrMissLatency::cpu.data 74947.341565                       # average ReadExReq mshr miss latency ((Tick/Count))
system.l2.ReadExReq.avgMshrMissLatency::total 74947.341565                       # average ReadExReq mshr miss latency ((Tick/Count))
system.l2.ReadSharedReq.hits::cpu.data              2                       # number of ReadSharedReq hits (Count)
system.l2.ReadSharedReq.hits::total                 2                       # number of ReadSharedReq hits (Count)
system.l2.ReadSharedReq.misses::cpu.data          210                       # number of ReadSharedReq misses (Count)
system.l2.ReadSharedReq.misses::total             210                       # number of ReadSharedReq misses (Count)
system.l2.ReadSharedReq.missLatency::cpu.data     16731500                       # number of ReadSharedReq miss ticks (Tick)
system.l2.ReadSharedReq.missLatency::total     16731500                       # number of ReadSharedReq miss ticks (Tick)
system.l2.ReadSharedReq.accesses::cpu.data          212                       # number of ReadSharedReq accesses(hits+misses) (Count)
system.l2.ReadSharedReq.accesses::total           212                       # number of ReadSharedReq accesses(hits+misses) (Count)
system.l2.ReadSharedReq.missRate::cpu.data     0.990566                       # miss rate for ReadSharedReq accesses (Ratio)
system.l2.ReadSharedReq.missRate::total      0.990566                       # miss rate for ReadSharedReq accesses (Ratio)
system.l2.ReadSharedReq.avgMissLatency::cpu.data 79673.809524                       # average ReadSharedReq miss latency ((Tick/Count))
system.l2.ReadSharedReq.avgMissLatency::total 79673.809524                       # average ReadSharedReq miss latency ((Tick/Count))
system.l2.ReadSharedReq.mshrMisses::cpu.data          210                       # number of ReadSharedReq MSHR misses (Count)
system.l2.ReadSharedReq.mshrMisses::total          210                       # number of ReadSharedReq MSHR misses (Count)
system.l2.ReadSharedReq.mshrMissLatency::cpu.data     14631500                       # number of ReadSharedReq MSHR miss ticks (Tick)
system.l2.ReadSharedReq.mshrMissLatency::total     14631500                       # number of ReadSharedReq MSHR miss ticks (Tick)
system.l2.ReadSharedReq.mshrMissRate::cpu.data     0.990566                       # mshr miss rate for ReadSharedReq accesses (Ratio)
system.l2.ReadSharedReq.mshrMissRate::total     0.990566                       # mshr miss rate for ReadSharedReq accesses (Ratio)
system.l2.ReadSharedReq.avgMshrMissLatency::cpu.data 69673.809524                       # average ReadSharedReq mshr miss latency ((Tick/Count))
system.l2.ReadSharedReq.avgMshrMissLatency::total 69673.809524                       # average ReadSharedReq mshr miss latency ((Tick/Count))
system.l2.WritebackClean.hits::writebacks          174                       # number of WritebackClean hits (Count)
system.l2.WritebackClean.hits::total              174                       # number of WritebackClean hits (Count)
system.l2.WritebackClean.accesses::writebacks          174                       # number of WritebackClean accesses(hits+misses) (Count)
system.l2.WritebackClean.accesses::total          174                       # number of WritebackClean accesses(hits+misses) (Count)
system.l2.WritebackDirty.hits::writebacks         9622                       # number of WritebackDirty hits (Count)
system.l2.WritebackDirty.hits::total             9622                       # number of WritebackDirty hits (Count)
system.l2.WritebackDirty.accesses::writebacks         9622                       # number of WritebackDirty accesses(hits+misses) (Count)
system.l2.WritebackDirty.accesses::total         9622                       # number of WritebackDirty accesses(hits+misses) (Count)
system.l2.power_state.pwrStateResidencyTicks::UNDEFINED    587688000                       # Cumulative time (in ticks) in various power states (Tick)
system.l2.tags.tagsInUse                  2837.727641                       # Average ticks per tags in use ((Tick/Count))
system.l2.tags.totalRefs                        20901                       # Total number of references to valid blocks. (Count)
system.l2.tags.sampledRefs                      11098                       # Sample count of references to valid blocks. (Count)
system.l2.tags.avgRefs                       1.883312                       # Average number of references to valid blocks. ((Count/Count))
system.l2.tags.warmupTick                       77000                       # The tick when the warmup percentage was hit. (Tick)
system.l2.tags.occupancies::writebacks       0.464722                       # Average occupied blocks per tick, per requestor ((Count/Tick))
system.l2.tags.occupancies::cpu.inst       983.183815                       # Average occupied blocks per tick, per requestor ((Count/Tick))
system.l2.tags.occupancies::cpu.data      1854.079104                       # Average occupied blocks per tick, per requestor ((Count/Tick))
system.l2.tags.avgOccs::writebacks           0.000004                       # Average percentage of cache occupancy ((Ratio/Tick))
system.l2.tags.avgOccs::cpu.inst             0.007501                       # Average percentage of cache occupancy ((Ratio/Tick))
system.l2.tags.avgOccs::cpu.data             0.014146                       # Average percentage of cache occupancy ((Ratio/Tick))
system.l2.tags.avgOccs::total                0.021650                       # Average percentage of cache occupancy ((Ratio/Tick))
system.l2.tags.occupanciesTaskId::1024           3439                       # Occupied blocks per task id (Count)
system.l2.tags.ageTaskId_1024::0                  194                       # Occupied blocks per task id, per block age (Count)
system.l2.tags.ageTaskId_1024::1                 1724                       # Occupied blocks per task id, per block age (Count)
system.l2.tags.ageTaskId_1024::2                 1521                       # Occupied blocks per task id, per block age (Count)
system.l2.tags.ratioOccsTaskId::1024         0.026237                       # Ratio of occupied blocks and all blocks, per task id (Ratio)
[...]
system.mem_ctrls.dram.perBankWrBursts::12          479                       # Per bank write bursts (Count)
system.mem_ctrls.dram.perBankWrBursts::13          472                       # Per bank write bursts (Count)
system.mem_ctrls.dram.perBankWrBursts::14          473                       # Per bank write bursts (Count)
system.mem_ctrls.dram.perBankWrBursts::15          476                       # Per bank write bursts (Count)
system.mem_ctrls.dram.totQLat               156454000                       # Total ticks spent queuing (Tick)
system.mem_ctrls.dram.totBusLat              55475000                       # Total ticks spent in databus transfers (Tick)
system.mem_ctrls.dram.totMemAccLat          364485250                       # Total ticks spent from burst creation until serviced by the DRAM (Tick)
system.mem_ctrls.dram.avgQLat                14101.31                       # Average queueing delay per DRAM burst ((Tick/Count))
system.mem_ctrls.dram.avgBusLat               5000.00                       # Average bus latency per DRAM burst ((Tick/Count))
system.mem_ctrls.dram.avgMemAccLat           32851.31                       # Average memory access latency per DRAM burst ((Tick/Count))
system.mem_ctrls.dram.readRowHits                9601                       # Number of row buffer hits during reads (Count)
system.mem_ctrls.dram.writeRowHits               6612                       # Number of row buffer hits during writes (Count)
system.mem_ctrls.dram.readRowHitRate            86.53                       # Row buffer hit rate for reads (Ratio)
system.mem_ctrls.dram.writeRowHitRate           86.77                       # Row buffer hit rate for writes (Ratio)
system.mem_ctrls.dram.bytesPerActivate::samples         2488                       # Bytes accessed per row activation (Byte)
system.mem_ctrls.dram.bytesPerActivate::mean   478.893891                       # Bytes accessed per row activation (Byte)
system.mem_ctrls.dram.bytesPerActivate::gmean   442.134103                       # Bytes accessed per row activation (Byte)
system.mem_ctrls.dram.bytesPerActivate::stdev   135.459408                       # Bytes accessed per row activation (Byte)
system.mem_ctrls.dram.bytesPerActivate::0-127          105      4.22%      4.22% # Bytes accessed per row activation (Byte)
system.mem_ctrls.dram.bytesPerActivate::128-255           97      3.90%      8.12% # Bytes accessed per row activation (Byte)
system.mem_ctrls.dram.bytesPerActivate::256-383           48      1.93%     10.05% # Bytes accessed per row activation (Byte)
system.mem_ctrls.dram.bytesPerActivate::384-511          117      4.70%     14.75% # Bytes accessed per row activation (Byte)
system.mem_ctrls.dram.bytesPerActivate::512-639         2062     82.88%     97.63% # Bytes accessed per row activation (Byte)
system.mem_ctrls.dram.bytesPerActivate::640-767           16      0.64%     98.27% # Bytes accessed per row activation (Byte)
system.mem_ctrls.dram.bytesPerActivate::768-895            5      0.20%     98.47% # Bytes accessed per row activation (Byte)
system.mem_ctrls.dram.bytesPerActivate::896-1023            7      0.28%     98.75% # Bytes accessed per row activation (Byte)
system.mem_ctrls.dram.bytesPerActivate::1024-1151           31      1.25%    100.00% # Bytes accessed per row activation (Byte)
system.mem_ctrls.dram.bytesPerActivate::total         2488                       # Bytes accessed per row activation (Byte)
system.mem_ctrls.dram.bytesRead                710080                       # Total bytes read (Byte)
system.mem_ctrls.dram.bytesWritten             487680                       # Total bytes written (Byte)
system.mem_ctrls.dram.avgRdBW             1208.260165                       # Average DRAM read bandwidth in MiBytes/s ((Byte/Second))
system.mem_ctrls.dram.avgWrBW              829.828072                       # Average DRAM write bandwidth in MiBytes/s ((Byte/Second))
system.mem_ctrls.dram.peakBW                 12800.00                       # Theoretical peak bandwidth in MiByte/s ((Byte/Second))
system.mem_ctrls.dram.busUtil                   15.92                       # Data bus utilization in percentage (Ratio)
system.mem_ctrls.dram.busUtilRead                9.44                       # Data bus utilization in percentage for reads (Ratio)
system.mem_ctrls.dram.busUtilWrite               6.48                       # Data bus utilization in percentage for writes (Ratio)
system.mem_ctrls.dram.pageHitRate               86.63                       # Row buffer hit rate, read and write combined (Ratio)
system.mem_ctrls.dram.power_state.pwrStateResidencyTicks::UNDEFINED    587688000                       # Cumulative time (in ticks) in various power states (Tick)
system.mem_ctrls.dram.rank0.actEnergy         8682240                       # Energy for activate commands per rank (pJ) (Joule)
system.mem_ctrls.dram.rank0.preEnergy         4591950                       # Energy for precharge commands per rank (pJ) (Joule)
system.mem_ctrls.dram.rank0.readEnergy       38491740                       # Energy for read commands per rank (pJ) (Joule)
system.mem_ctrls.dram.rank0.writeEnergy      19836000                       # Energy for write commands per rank (pJ) (Joule)
system.mem_ctrls.dram.rank0.refreshEnergy 46098000.000000                       # Energy for refresh commands per rank (pJ) (Joule)
system.mem_ctrls.dram.rank0.actBackEnergy    251313000                       # Energy for active background per rank (pJ) (Joule)
system.mem_ctrls.dram.rank0.preBackEnergy     14040480                       # Energy for precharge background per rank (pJ) (Joule)
system.mem_ctrls.dram.rank0.actPowerDownEnergy            0                       # Energy for active power-down per rank (pJ) (Joule)
system.mem_ctrls.dram.rank0.prePowerDownEnergy            0                       # Energy for precharge power-down per rank (pJ) (Joule)
system.mem_ctrls.dram.rank0.selfRefreshEnergy            0                       # Energy for self refresh per rank (pJ) (Joule)
system.mem_ctrls.dram.rank0.totalEnergy     383053410                       # Total energy per rank (pJ) (Joule)
system.mem_ctrls.dram.rank0.averagePower   651.797229                       # Core power per rank (mW) (Watt)
system.mem_ctrls.dram.rank0.totalIdleTime            0                       # Total Idle time Per DRAM Rank (Tick)
system.mem_ctrls.dram.rank0.pwrStateTime::IDLE     34469750                       # Time in different power states (Tick)
system.mem_ctrls.dram.rank0.pwrStateTime::REF     19500000                       # Time in different power states (Tick)
system.mem_ctrls.dram.rank0.pwrStateTime::SREF            0                       # Time in different power states (Tick)
system.mem_ctrls.dram.rank0.pwrStateTime::PRE_PDN            0                       # Time in different power states (Tick)
system.mem_ctrls.dram.rank0.pwrStateTime::ACT    533718250                       # Time in different power states (Tick)
system.mem_ctrls.dram.rank0.pwrStateTime::ACT_PDN            0                       # Time in different power states (Tick)
system.mem_ctrls.dram.rank1.actEnergy         9182040                       # Energy for activate commands per rank (pJ) (Joule)
system.mem_ctrls.dram.rank1.preEnergy         4850010                       # Energy for precharge commands per rank (pJ) (Joule)
system.mem_ctrls.dram.rank1.readEnergy       40726560                       # Energy for read commands per rank (pJ) (Joule)
system.mem_ctrls.dram.rank1.writeEnergy      19940400                       # Energy for write commands per rank (pJ) (Joule)
system.mem_ctrls.dram.rank1.refreshEnergy 46098000.000000                       # Energy for refresh commands per rank (pJ) (Joule)
system.mem_ctrls.dram.rank1.actBackEnergy    251673240                       # Energy for active background per rank (pJ) (Joule)
system.mem_ctrls.dram.rank1.preBackEnergy     13737120                       # Energy for precharge background per rank (pJ) (Joule)
system.mem_ctrls.dram.rank1.actPowerDownEnergy            0                       # Energy for active power-down per rank (pJ) (Joule)
system.mem_ctrls.dram.rank1.prePowerDownEnergy            0                       # Energy for precharge power-down per rank (pJ) (Joule)
system.mem_ctrls.dram.rank1.selfRefreshEnergy            0                       # Energy for self refresh per rank (pJ) (Joule)
system.mem_ctrls.dram.rank1.totalEnergy     386207370                       # Total energy per rank (pJ) (Joule)
system.mem_ctrls.dram.rank1.averagePower   657.163954                       # Core power per rank (mW) (Watt)
system.mem_ctrls.dram.rank1.totalIdleTime            0                       # Total Idle time Per DRAM Rank (Tick)
system.mem_ctrls.dram.rank1.pwrStateTime::IDLE     33667000                       # Time in different power states (Tick)
system.mem_ctrls.dram.rank1.pwrStateTime::REF     19500000                       # Time in different power states (Tick)
system.mem_ctrls.dram.rank1.pwrStateTime::SREF            0                       # Time in different power states (Tick)
system.mem_ctrls.dram.rank1.pwrStateTime::PRE_PDN            0                       # Time in different power states (Tick)
system.mem_ctrls.dram.rank1.pwrStateTime::ACT    534521000                       # Time in different power states (Tick)
system.mem_ctrls.dram.rank1.pwrStateTime::ACT_PDN            0                       # Time in different power states (Tick)
system.mem_ctrls.power_state.pwrStateResidencyTicks::UNDEFINED    587688000                       # Cumulative time (in ticks) in various power states (Tick)
system.membus.transDist::ReadResp                1296                       # Transaction distribution (Count)
system.membus.transDist::WritebackDirty          7638                       # Transaction distribution (Count)
system.membus.transDist::CleanEvict                 3                       # Transaction distribution (Count)
system.membus.transDist::ReadExReq               9799                       # Transaction distribution (Count)
system.membus.transDist::ReadExResp              9799                       # Transaction distribution (Count)
system.membus.transDist::ReadSharedReq           1296                       # Transaction distribution (Count)
system.membus.transDist::InvalidateReq            232                       # Transaction distribution (Count)
system.membus.pktCount_system.l2.mem_side_port::system.mem_ctrls.port        30063                       # Packet count per connected requestor and responder (Count)
system.membus.pktCount::total                   30063                       # Packet count per connected requestor and responder (Count)
system.membus.pktSize_system.l2.mem_side_port::system.mem_ctrls.port       299728                       # Cumulative packet size per connected requestor and responder (Byte)
system.membus.pktSize::total                   299728                       # Cumulative packet size per connected requestor and responder (Byte)
system.membus.snoops                                0                       # Total snoops (Count)
system.membus.snoopTraffic                          0                       # Total snoop traffic (Byte)
system.membus.snoopFanout::samples              11327                       # Request fanout histogram (Count)
system.membus.snoopFanout::mean                     0                       # Request fanout histogram (Count)
system.membus.snoopFanout::stdev                    0                       # Request fanout histogram (Count)
system.membus.snoopFanout::underflows               0      0.00%      0.00% # Request fanout histogram (Count)
system.membus.snoopFanout::0                    11327    100.00%    100.00% # Request fanout histogram (Count)
system.membus.snoopFanout::1                        0      0.00%    100.00% # Request fanout histogram (Count)
system.membus.snoopFanout::overflows                0      0.00%    100.00% # Request fanout histogram (Count)
system.membus.snoopFanout::min_value                0                       # Request fanout histogram (Count)
system.membus.snoopFanout::max_value                0                       # Request fanout histogram (Count)
system.membus.snoopFanout::total                11327                       # Request fanout histogram (Count)
system.membus.power_state.pwrStateResidencyTicks::UNDEFINED    587688000                       # Cumulative time (in ticks) in various power states (Tick)
system.membus.reqLayer0.occupancy            29263500                       # Layer occupancy (ticks) (Tick)
system.membus.reqLayer0.utilization               0.0                       # Layer utilization (Ratio)
system.membus.respLayer1.occupancy           25310750                       # Layer occupancy (ticks) (Tick)
system.membus.respLayer1.utilization              0.0                       # Layer utilization (Ratio)
system.membus.snoop_filter.totRequests          18968                       # Total number of requests made to the snoop filter. (Count)
system.membus.snoop_filter.hitSingleRequests         7641                       # Number of requests hitting in the snoop filter with a single holder of the requested data. (Count)
system.membus.snoop_filter.hitMultiRequests            0                       # Number of requests hitting in the snoop filter with multiple (>1) holders of the requested data. (Count)
system.membus.snoop_filter.totSnoops                0                       # Total number of snoops made to the snoop filter. (Count)
system.membus.snoop_filter.hitSingleSnoops            0                       # Number of snoops hitting in the snoop filter with a single holder of the requested data. (Count)
system.membus.snoop_filter.hitMultiSnoops            0                       # Number of snoops hitting in the snoop filter with multiple (>1) holders of the requested data. (Count)
system.tol2bus.transDist::ReadResp               1304                       # Transaction distribution (Count)
system.tol2bus.transDist::WritebackDirty        17261                       # Transaction distribution (Count)
system.tol2bus.transDist::WritebackClean          174                       # Transaction distribution (Count)
system.tol2bus.transDist::CleanEvict               22                       # Transaction distribution (Count)
system.tol2bus.transDist::ReadExReq              9799                       # Transaction distribution (Count)
system.tol2bus.transDist::ReadExResp             9798                       # Transaction distribution (Count)
system.tol2bus.transDist::ReadCleanReq           1092                       # Transaction distribution (Count)
system.tol2bus.transDist::ReadSharedReq           212                       # Transaction distribution (Count)
system.tol2bus.transDist::InvalidateReq           232                       # Transaction distribution (Count)
system.tol2bus.transDist::InvalidateResp          232                       # Transaction distribution (Count)
system.tol2bus.pktCount_system.cpu.icache.mem_side_port::system.l2.cpu_side_port         2358                       # Packet count per connected requestor and responder (Count)
system.tol2bus.pktCount_system.cpu.dcache.mem_side_port::system.l2.cpu_side_port        30109                       # Packet count per connected requestor and responder (Count)
system.tol2bus.pktCount::total                  32467                       # Packet count per connected requestor and responder (Count)
system.tol2bus.pktSize_system.cpu.icache.mem_side_port::system.l2.cpu_side_port        20256                       # Cumulative packet size per connected requestor and responder (Byte)
system.tol2bus.pktSize_system.cpu.dcache.mem_side_port::system.l2.cpu_side_port       314112                       # Cumulative packet size per connected requestor and responder (Byte)
system.tol2bus.pktSize::total                  334368                       # Cumulative packet size per connected requestor and responder (Byte)
system.tol2bus.snoops                            7659                       # Total snoops (Count)
system.tol2bus.snoopTraffic                    122224                       # Total snoop traffic (Byte)
system.tol2bus.snoopFanout::samples             18994                       # Request fanout histogram (Count)
system.tol2bus.snoopFanout::mean             0.001053                       # Request fanout histogram (Count)
system.tol2bus.snoopFanout::stdev            0.032433                       # Request fanout histogram (Count)
system.tol2bus.snoopFanout::underflows              0      0.00%      0.00% # Request fanout histogram (Count)
system.tol2bus.snoopFanout::0                   18974     99.89%     99.89% # Request fanout histogram (Count)
system.tol2bus.snoopFanout::1                      20      0.11%    100.00% # Request fanout histogram (Count)
system.tol2bus.snoopFanout::2                       0      0.00%    100.00% # Request fanout histogram (Count)
system.tol2bus.snoopFanout::overflows               0      0.00%    100.00% # Request fanout histogram (Count)
system.tol2bus.snoopFanout::min_value               0                       # Request fanout histogram (Count)
system.tol2bus.snoopFanout::max_value               1                       # Request fanout histogram (Count)
system.tol2bus.snoopFanout::total               18994                       # Request fanout histogram (Count)
system.tol2bus.power_state.pwrStateResidencyTicks::UNDEFINED    587688000                       # Cumulative time (in ticks) in various power states (Tick)
system.tol2bus.reqLayer0.occupancy           15464500                       # Layer occupancy (ticks) (Tick)
system.tol2bus.reqLayer0.utilization              0.0                       # Layer utilization (Ratio)
system.tol2bus.respLayer0.occupancy           1092000                       # Layer occupancy (ticks) (Tick)
system.tol2bus.respLayer0.utilization             0.0                       # Layer utilization (Ratio)
system.tol2bus.respLayer1.occupancy          10126000                       # Layer occupancy (ticks) (Tick)
system.tol2bus.respLayer1.utilization             0.0                       # Layer utilization (Ratio)
system.tol2bus.snoop_filter.totRequests         21133                       # Total number of requests made to the snoop filter. (Count)
system.tol2bus.snoop_filter.hitSingleRequests         9801                       # Number of requests hitting in the snoop filter with a single holder of the requested data. (Count)
system.tol2bus.snoop_filter.hitMultiRequests            0                       # Number of requests hitting in the snoop filter with multiple (>1) holders of the requested data. (Count)
system.tol2bus.snoop_filter.totSnoops              17                       # Total number of snoops made to the snoop filter. (Count)
system.tol2bus.snoop_filter.hitSingleSnoops           17                       # Number of snoops hitting in the snoop filter with a single holder of the requested data. (Count)
system.tol2bus.snoop_filter.hitMultiSnoops            0                       # Number of snoops hitting in the snoop filter with multiple (>1) holders of the requested data. (Count)
system.voltage_domain.voltage                       1                       # Voltage in Volts (Volt)
system.workload.inst.arm                            0                       # number of arm instructions executed (Count)
system.workload.inst.quiesce                        0                       # number of quiesce instructions executed (Count)
system.cpu.idleCycles                          879110                       # Total number of cycles that the object has spent stopped (Unspecified)
system.cpu.tickCycles                          295948                       # Number of cycles that the object actually ticked (Unspecified)

---------- End Simulation Statistics   ----------
