
---------- Begin Simulation Statistics ----------
simSeconds                                   0.206560                       # Number of seconds simulated (Second)
simTicks                                 206560485000                       # Number of ticks simulated (Tick)
finalTick                                206560485000                       # Number of ticks from beginning of simulation (restored from checkpoints and never reset) (Tick)
simFreq                                  1000000000000                       # The number of ticks per simulated second ((Tick/Second))
hostSeconds                                    334.17                       # Real time elapsed on the host (Second)
hostTickRate                                618135347                       # The number of ticks simulated per host second (ticks/s) ((Tick/Second))
hostMemory                                     698136                       # Number of bytes of host memory used (Byte)
simInsts                                    100000000                       # Number of instructions simulated (Count)
simOps                                      101168649                       # Number of ops (including micro ops) simulated (Count)
hostInstRate                                   299251                       # Simulator instruction rate (inst/s) ((Count/Second))
hostOpRate                                     302749                       # Simulator op (including micro ops) rate (op/s) ((Count/Second))
system.clk_domain.clock                          1000                       # Clock period in ticks (Tick)
system.cpu.numCycles                        413120970                       # Number of cpu cycles simulated (Cycle)
system.cpu.numWorkItemsStarted                      0                       # Number of work items this cpu started (Count)
system.cpu.numWorkItemsCompleted                    0                       # Number of work items this cpu completed (Count)
system.cpu.numInsts                         100000000                       # Number of instructions committed (Count)
system.cpu.numOps                           101168649                       # Number of ops (including micro ops) committed (Count)
system.cpu.numDiscardedOps                    1236603                       # Number of ops (including micro ops) which were discarded before commit (Count)
system.cpu.numFetchSuspends                         0                       # Number of times Execute suspended instruction fetching (Count)
system.cpu.cpi                               4.131210                       # CPI: cycles per instruction ((Cycle/Count))
system.cpu.ipc                               0.242060                       # IPC: instructions per cycle ((Count/Cycle))
system.cpu.committedInstType_0::No_OpClass         1323      0.00%      0.00% # Class of committed instruction (Count)
system.cpu.committedInstType_0::IntAlu       66212167     65.45%     65.45% # Class of committed instruction (Count)
system.cpu.committedInstType_0::IntMult         17229      0.02%     65.47% # Class of committed instruction (Count)
system.cpu.committedInstType_0::IntDiv          12194      0.01%     65.48% # Class of committed instruction (Count)
system.cpu.committedInstType_0::FloatAdd            0      0.00%     65.48% # Class of committed instruction (Count)
system.cpu.committedInstType_0::FloatCmp            5      0.00%     65.48% # Class of committed instruction (Count)
system.cpu.committedInstType_0::FloatCvt           25      0.00%     65.48% # Class of committed instruction (Count)
system.cpu.committedInstType_0::FloatMult            5      0.00%     65.48% # Class of committed instruction (Count)
system.cpu.committedInstType_0::FloatMultAcc            0      0.00%     65.48% # Class of committed instruction (Count)
system.cpu.committedInstType_0::FloatDiv            5      0.00%     65.48% # Class of committed instruction (Count)
system.cpu.committedInstType_0::FloatMisc         1158      0.00%     65.48% # Class of committed instruction (Count)
system.cpu.committedInstType_0::FloatSqrt            0      0.00%     65.48% # Class of committed instruction (Count)
system.cpu.committedInstType_0::SimdAdd          1013      0.00%     65.48% # Class of committed instruction (Count)
system.cpu.committedInstType_0::SimdAddAcc            0      0.00%     65.48% # Class of committed instruction (Count)
system.cpu.committedInstType_0::SimdAlu          1058      0.00%     65.48% # Class of committed instruction (Count)
system.cpu.committedInstType_0::SimdCmp          2099      0.00%     65.48% # Class of committed instruction (Count)
system.cpu.committedInstType_0::SimdCvt             0      0.00%     65.48% # Class of committed instruction (Count)
system.cpu.committedInstType_0::SimdMisc         3517      0.00%     65.49% # Class of committed instruction (Count)
system.cpu.committedInstType_0::SimdMult            0      0.00%     65.49% # Class of committed instruction (Count)
system.cpu.committedInstType_0::SimdMultAcc            0      0.00%     65.49% # Class of committed instruction (Count)
system.cpu.committedInstType_0::SimdShift            0      0.00%     65.49% # Class of committed instruction (Count)
system.cpu.committedInstType_0::SimdShiftAcc            0      0.00%     65.49% # Class of committed instruction (Count)
system.cpu.committedInstType_0::SimdDiv             0      0.00%     65.49% # Class of committed instruction (Count)
system.cpu.committedInstType_0::SimdSqrt            0      0.00%     65.49% # Class of committed instruction (Count)
system.cpu.committedInstType_0::SimdFloatAdd            0      0.00%     65.49% # Class of committed instruction (Count)
system.cpu.committedInstType_0::SimdFloatAlu            0      0.00%     65.49% # Class of committed instruction (Count)
system.cpu.committedInstType_0::SimdFloatCmp            0      0.00%     65.49% # Class of committed instruction (Count)
system.cpu.committedInstType_0::SimdFloatCvt            0      0.00%     65.49% # Class of committed instruction (Count)
system.cpu.committedInstType_0::SimdFloatDiv            0      0.00%     65.49% # Class of committed instruction (Count)
system.cpu.committedInstType_0::SimdFloatMisc            0      0.00%     65.49% # Class of committed instruction (Count)
system.cpu.committedInstType_0::SimdFloatMult            0      0.00%     65.49% # Class of committed instruction (Count)
system.cpu.committedInstType_0::SimdFloatMultAcc            0      0.00%     65.49% # Class of committed instruction (Count)
system.cpu.committedInstType_0::SimdFloatSqrt            0      0.00%     65.49% # Class of committed instruction (Count)
system.cpu.committedInstType_0::SimdReduceAdd            0      0.00%     65.49% # Class of committed instruction (Count)
system.cpu.committedInstType_0::SimdReduceAlu            0      0.00%     65.49% # Class of committed instruction (Count)
system.cpu.committedInstType_0::SimdReduceCmp            0      0.00%     65.49% # Class of committed instruction (Count)
system.cpu.committedInstType_0::SimdFloatReduceAdd            0      0.00%     65.49% # Class of committed instruction (Count)
system.cpu.committedInstType_0::SimdFloatReduceCmp            0      0.00%     65.49% # Class of committed instruction (Count)
system.cpu.committedInstType_0::SimdAes             0      0.00%     65.49% # Class of committed instruction (Count)
system.cpu.committedInstType_0::SimdAesMix            0      0.00%     65.49% # Class of committed instruction (Count)
system.cpu.committedInstType_0::SimdSha1Hash            0      0.00%     65.49% # Class of committed instruction (Count)
system.cpu.committedInstType_0::SimdSha1Hash2            0      0.00%     65.49% # Class of committed instruction (Count)
system.cpu.committedInstType_0::SimdSha256Hash            0      0.00%     65.49% # Class of committed instruction (Count)
system.cpu.committedInstType_0::SimdSha256Hash2            0      0.00%     65.49% # Class of committed instruction (Count)
system.cpu.committedInstType_0::SimdShaSigma2            0      0.00%     65.49% # Class of committed instruction (Count)
system.cpu.committedInstType_0::SimdShaSigma3            0      0.00%     65.49% # Class of committed instruction (Count)
system.cpu.committedInstType_0::SimdPredAlu            0      0.00%     65.49% # Class of committed instruction (Count)
system.cpu.committedInstType_0::MemRead      21507035     21.26%     86.75% # Class of committed instruction (Count)
system.cpu.committedInstType_0::MemWrite     13409816     13.25%    100.00% # Class of committed instruction (Count)
system.cpu.committedInstType_0::FloatMemRead            0      0.00%    100.00% # Class of committed instruction (Count)
system.cpu.committedInstType_0::FloatMemWrite            0      0.00%    100.00% # Class of committed instruction (Count)
system.cpu.committedInstType_0::IprAccess            0      0.00%    100.00% # Class of committed instruction (Count)
system.cpu.committedInstType_0::InstPrefetch            0      0.00%    100.00% # Class of committed instruction (Count)
system.cpu.committedInstType_0::total       101168649                       # Class of committed instruction (Count)
system.cpu.branchPred.lookups                16557209                       # Number of BP lookups (Count)
system.cpu.branchPred.condPredicted          15192909                       # Number of conditional branches predicted (Count)
system.cpu.branchPred.condIncorrect            463624                       # Number of conditional branches incorrect (Count)
system.cpu.branchPred.BTBLookups             13184847                       # Number of BTB lookups (Count)
system.cpu.branchPred.BTBHits                13081429                       # Number of BTB hits (Count)
system.cpu.branchPred.BTBHitRatio            0.992156                       # BTB Hit Ratio (Ratio)
system.cpu.branchPred.RASUsed                  328142                       # Number of times the RAS was used to get a target. (Count)
system.cpu.branchPred.RASIncorrect                 21                       # Number of incorrect RAS predictions. (Count)
system.cpu.branchPred.indirectLookups           41045                       # Number of indirect predictor lookups. (Count)
system.cpu.branchPred.indirectHits              40318                       # Number of indirect target hits. (Count)
system.cpu.branchPred.indirectMisses              727                       # Number of indirect misses. (Count)
system.cpu.branchPred.indirectMispredicted         6145                       # Number of mispredicted indirect branches. (Count)
system.cpu.dcache.demandHits::cpu.data       25859979                       # number of demand (read+write) hits (Count)
system.cpu.dcache.demandHits::total          25859979                       # number of demand (read+write) hits (Count)
system.cpu.dcache.overallHits::cpu.data      25859979                       # number of overall hits (Count)
system.cpu.dcache.overallHits::total         25859979                       # number of overall hits (Count)
system.cpu.dcache.demandMisses::cpu.data      8370345                       # number of demand (read+write) misses (Count)
system.cpu.dcache.demandMisses::total         8370345                       # number of demand (read+write) misses (Count)
system.cpu.dcache.overallMisses::cpu.data      8370345                       # number of overall misses (Count)
system.cpu.dcache.overallMisses::total        8370345                       # number of overall misses (Count)
system.cpu.dcache.demandMissLatency::cpu.data 268788354500                       # number of demand (read+write) miss ticks (Tick)
system.cpu.dcache.demandMissLatency::total 268788354500                       # number of demand (read+write) miss ticks (Tick)
system.cpu.dcache.overallMissLatency::cpu.data 268788354500                       # number of overall miss ticks (Tick)
system.cpu.dcache.overallMissLatency::total 268788354500                       # number of overall miss ticks (Tick)
system.cpu.dcache.demandAccesses::cpu.data     34230324                       # number of demand (read+write) accesses (Count)
system.cpu.dcache.demandAccesses::total      34230324                       # number of demand (read+write) accesses (Count)
system.cpu.dcache.overallAccesses::cpu.data     34230324                       # number of overall (read+write) accesses (Count)
system.cpu.dcache.overallAccesses::total     34230324                       # number of overall (read+write) accesses (Count)
system.cpu.dcache.demandMissRate::cpu.data     0.244530                       # miss rate for demand accesses (Ratio)
system.cpu.dcache.demandMissRate::total      0.244530                       # miss rate for demand accesses (Ratio)
system.cpu.dcache.overallMissRate::cpu.data     0.244530                       # miss rate for overall accesses (Ratio)
system.cpu.dcache.overallMissRate::total     0.244530                       # miss rate for overall accesses (Ratio)
system.cpu.dcache.demandAvgMissLatency::cpu.data 32111.980390                       # average overall miss latency in ticks ((Tick/Count))
system.cpu.dcache.demandAvgMissLatency::total 32111.980390                       # average overall miss latency in ticks ((Tick/Count))
system.cpu.dcache.overallAvgMissLatency::cpu.data 32111.980390                       # average overall miss latency ((Tick/Count))
system.cpu.dcache.overallAvgMissLatency::total 32111.980390                       # average overall miss latency ((Tick/Count))
system.cpu.dcache.blockedCycles::no_mshrs            0                       # number of cycles access was blocked (Cycle)
system.cpu.dcache.blockedCycles::no_targets            0                       # number of cycles access was blocked (Cycle)
system.cpu.dcache.blockedCauses::no_mshrs            0                       # number of times access was blocked (Count)
system.cpu.dcache.blockedCauses::no_targets            0                       # number of times access was blocked (Count)
system.cpu.dcache.avgBlocked::no_mshrs            nan                       # average number of cycles each access was blocked ((Cycle/Count))
system.cpu.dcache.avgBlocked::no_targets          nan                       # average number of cycles each access was blocked ((Cycle/Count))
system.cpu.dcache.writebacks::writebacks      8312505                       # number of writebacks (Count)
system.cpu.dcache.writebacks::total           8312505                       # number of writebacks (Count)
system.cpu.dcache.demandMshrHits::cpu.data        40066                       # number of demand (read+write) MSHR hits (Count)
system.cpu.dcache.demandMshrHits::total         40066                       # number of demand (read+write) MSHR hits (Count)
system.cpu.dcache.overallMshrHits::cpu.data        40066                       # number of overall MSHR hits (Count)
system.cpu.dcache.overallMshrHits::total        40066                       # number of overall MSHR hits (Count)
system.cpu.dcache.demandMshrMisses::cpu.data      8330279                       # number of demand (read+write) MSHR misses (Count)
system.cpu.dcache.demandMshrMisses::total      8330279                       # number of demand (read+write) MSHR misses (Count)
system.cpu.dcache.overallMshrMisses::cpu.data      8330279                       # number of overall MSHR misses (Count)
system.cpu.dcache.overallMshrMisses::total      8330279                       # number of overall MSHR misses (Count)
system.cpu.dcache.demandMshrMissLatency::cpu.data 257707124500                       # number of demand (read+write) MSHR miss ticks (Tick)
system.cpu.dcache.demandMshrMissLatency::total 257707124500                       # number of demand (read+write) MSHR miss ticks (Tick)
system.cpu.dcache.overallMshrMissLatency::cpu.data 257707124500                       # number of overall MSHR miss ticks (Tick)
system.cpu.dcache.overallMshrMissLatency::total 257707124500                       # number of overall MSHR miss ticks (Tick)
system.cpu.dcache.demandMshrMissRate::cpu.data     0.243360                       # mshr miss ratio for demand accesses (Ratio)
system.cpu.dcache.demandMshrMissRate::total     0.243360                       # mshr miss ratio for demand accesses (Ratio)
system.cpu.dcache.overallMshrMissRate::cpu.data     0.243360                       # mshr miss ratio for overall accesses (Ratio)
system.cpu.dcache.overallMshrMissRate::total     0.243360                       # mshr miss ratio for overall accesses (Ratio)
system.cpu.dcache.demandAvgMshrMissLatency::cpu.data 30936.193674                       # average overall mshr miss latency ((Tick/Count))
system.cpu.dcache.demandAvgMshrMissLatency::total 30936.193674                       # average overall mshr miss latency ((Tick/Count))
system.cpu.dcache.overallAvgMshrMissLatency::cpu.data 30936.193674                       # average overall mshr miss latency ((Tick/Count))
system.cpu.dcache.overallAvgMshrMissLatency::total 30936.193674                       # average overall mshr miss latency ((Tick/Count))
system.cpu.dcache.replacements                8329260                       # number of replacements (Count)
system.cpu.dcache.LoadLockedReq.hits::cpu.data            2                       # number of LoadLockedReq hits (Count)
system.cpu.dcache.LoadLockedReq.hits::total            2                       # number of LoadLockedReq hits (Count)
system.cpu.dcache.LoadLockedReq.misses::cpu.data            2                       # number of LoadLockedReq misses (Count)
system.cpu.dcache.LoadLockedReq.misses::total            2                       # number of LoadLockedReq misses (Count)
system.cpu.dcache.LoadLockedReq.missLatency::cpu.data       190000                       # number of LoadLockedReq miss ticks (Tick)
system.cpu.dcache.LoadLockedReq.missLatency::total       190000                       # number of LoadLockedReq miss ticks (Tick)
system.cpu.dcache.LoadLockedReq.accesses::cpu.data            4                       # number of LoadLockedReq accesses(hits+misses) (Count)
system.cpu.dcache.LoadLockedReq.accesses::total            4                       # number of LoadLockedReq accesses(hits+misses) (Count)
system.cpu.dcache.LoadLockedReq.missRate::cpu.data     0.500000                       # miss rate for LoadLockedReq accesses (Ratio)
system.cpu.dcache.LoadLockedReq.missRate::total     0.500000                       # miss rate for LoadLockedReq accesses (Ratio)
system.cpu.dcache.LoadLockedReq.avgMissLatency::cpu.data        95000                       # average LoadLockedReq miss latency ((Tick/Count))
system.cpu.dcache.LoadLockedReq.avgMissLatency::total        95000                       # average LoadLockedReq miss latency ((Tick/Count))
system.cpu.dcache.LoadLockedReq.mshrMisses::cpu.data            2                       # number of LoadLockedReq MSHR misses (Count)
system.cpu.dcache.LoadLockedReq.mshrMisses::total            2                       # number of LoadLockedReq MSHR misses (Count)
system.cpu.dcache.LoadLockedReq.mshrMissLatency::cpu.data       188000                       # number of LoadLockedReq MSHR miss ticks (Tick)
system.cpu.dcache.LoadLockedReq.mshrMissLatency::total       188000                       # number of LoadLockedReq MSHR miss ticks (Tick)
system.cpu.dcache.LoadLockedReq.mshrMissRate::cpu.data     0.500000                       # mshr miss rate for LoadLockedReq accesses (Ratio)
system.cpu.dcache.LoadLockedReq.mshrMissRate::total     0.500000                       # mshr miss rate for LoadLockedReq accesses (Ratio)
system.cpu.dcache.LoadLockedReq.avgMshrMissLatency::cpu.data        94000                       # average LoadLockedReq mshr miss latency ((Tick/Count))
system.cpu.dcache.LoadLockedReq.avgMshrMissLatency::total        94000                       # average LoadLockedReq mshr miss latency ((Tick/Count))
system.cpu.dcache.ReadReq.hits::cpu.data     20833259                       # number of ReadReq hits (Count)
system.cpu.dcache.ReadReq.hits::total        20833259                       # number of ReadReq hits (Count)
system.cpu.dcache.ReadReq.misses::cpu.data        31523                       # number of ReadReq misses (Count)
system.cpu.dcache.ReadReq.misses::total         31523                       # number of ReadReq misses (Count)
system.cpu.dcache.ReadReq.missLatency::cpu.data    956151500                       # number of ReadReq miss ticks (Tick)
system.cpu.dcache.ReadReq.missLatency::total    956151500                       # number of ReadReq miss ticks (Tick)
system.cpu.dcache.ReadReq.accesses::cpu.data     20864782                       # number of ReadReq accesses(hits+misses) (Count)
system.cpu.dcache.ReadReq.accesses::total     20864782                       # number of ReadReq accesses(hits+misses) (Count)
system.cpu.dcache.ReadReq.missRate::cpu.data     0.001511                       # miss rate for ReadReq accesses (Ratio)
system.cpu.dcache.ReadReq.missRate::total     0.001511                       # miss rate for ReadReq accesses (Ratio)
system.cpu.dcache.ReadReq.avgMissLatency::cpu.data 30331.868794                       # average ReadReq miss latency ((Tick/Count))
system.cpu.dcache.ReadReq.avgMissLatency::total 30331.868794                       # average ReadReq miss latency ((Tick/Count))
system.cpu.dcache.ReadReq.mshrHits::cpu.data           45                       # number of ReadReq MSHR hits (Count)
system.cpu.dcache.ReadReq.mshrHits::total           45                       # number of ReadReq MSHR hits (Count)
system.cpu.dcache.ReadReq.mshrMisses::cpu.data        31478                       # number of ReadReq MSHR misses (Count)
system.cpu.dcache.ReadReq.mshrMisses::total        31478                       # number of ReadReq MSHR misses (Count)
system.cpu.dcache.ReadReq.mshrMissLatency::cpu.data    923205000                       # number of ReadReq MSHR miss ticks (Tick)
system.cpu.dcache.ReadReq.mshrMissLatency::total    923205000                       # number of ReadReq MSHR miss ticks (Tick)
system.cpu.dcache.ReadReq.mshrMissRate::cpu.data     0.001509                       # mshr miss rate for ReadReq accesses (Ratio)
system.cpu.dcache.ReadReq.mshrMissRate::total     0.001509                       # mshr miss rate for ReadReq accesses (Ratio)
system.cpu.dcache.ReadReq.avgMshrMissLatency::cpu.data 29328.578690                       # average ReadReq mshr miss latency ((Tick/Count))
system.cpu.dcache.ReadReq.avgMshrMissLatency::total 29328.578690                       # average ReadReq mshr miss latency ((Tick/Count))
system.cpu.dcache.StoreCondReq.hits::cpu.data            4                       # number of StoreCondReq hits (Count)
system.cpu.dcache.StoreCondReq.hits::total            4                       # number of StoreCondReq hits (Count)
system.cpu.dcache.StoreCondReq.accesses::cpu.data            4                       # number of StoreCondReq accesses(hits+misses) (Count)
system.cpu.dcache.StoreCondReq.accesses::total            4                       # number of StoreCondReq accesses(hits+misses) (Count)
system.cpu.dcache.SwapReq.hits::cpu.data          307                       # number of SwapReq hits (Count)
system.cpu.dcache.SwapReq.hits::total             307                       # number of SwapReq hits (Count)
system.cpu.dcache.SwapReq.misses::cpu.data            3                       # number of SwapReq misses (Count)
system.cpu.dcache.SwapReq.misses::total             3                       # number of SwapReq misses (Count)
system.cpu.dcache.SwapReq.missLatency::cpu.data       213000                       # number of SwapReq miss ticks (Tick)
system.cpu.dcache.SwapReq.missLatency::total       213000                       # number of SwapReq miss ticks (Tick)
system.cpu.dcache.SwapReq.accesses::cpu.data          310                       # number of SwapReq accesses(hits+misses) (Count)
system.cpu.dcache.SwapReq.accesses::total          310                       # number of SwapReq accesses(hits+misses) (Count)
system.cpu.dcache.SwapReq.missRate::cpu.data     0.009677                       # miss rate for SwapReq accesses (Ratio)
system.cpu.dcache.SwapReq.missRate::total     0.009677                       # miss rate for SwapReq accesses (Ratio)
system.cpu.dcache.SwapReq.avgMissLatency::cpu.data        71000                       # average SwapReq miss latency ((Tick/Count))
system.cpu.dcache.SwapReq.avgMissLatency::total        71000                       # average SwapReq miss latency ((Tick/Count))
system.cpu.dcache.SwapReq.mshrMisses::cpu.data            3                       # number of SwapReq MSHR misses (Count)
system.cpu.dcache.SwapReq.mshrMisses::total            3                       # number of SwapReq MSHR misses (Count)
system.cpu.dcache.SwapReq.mshrMissLatency::cpu.data       210000                       # number of SwapReq MSHR miss ticks (Tick)
system.cpu.dcache.SwapReq.mshrMissLatency::total       210000                       # number of SwapReq MSHR miss ticks (Tick)
system.cpu.dcache.SwapReq.mshrMissRate::cpu.data     0.009677                       # mshr miss rate for SwapReq accesses (Ratio)
system.cpu.dcache.SwapReq.mshrMissRate::total     0.009677                       # mshr miss rate for SwapReq accesses (Ratio)
system.cpu.dcache.SwapReq.avgMshrMissLatency::cpu.data        70000                       # average SwapReq mshr miss latency ((Tick/Count))
system.cpu.dcache.SwapReq.avgMshrMissLatency::total        70000                       # average SwapReq mshr miss latency ((Tick/Count))
system.cpu.dcache.WriteLineReq.hits::cpu.data            7                       # number of WriteLineReq hits (Count)
system.cpu.dcache.WriteLineReq.hits::total            7                       # number of WriteLineReq hits (Count)
system.cpu.dcache.WriteLineReq.misses::cpu.data      8251708                       # number of WriteLineReq misses (Count)
system.cpu.dcache.WriteLineReq.misses::total      8251708                       # number of WriteLineReq misses (Count)
system.cpu.dcache.WriteLineReq.missLatency::cpu.data 261793866500                       # number of WriteLineReq miss ticks (Tick)
system.cpu.dcache.WriteLineReq.missLatency::total 261793866500                       # number of WriteLineReq miss ticks (Tick)
system.cpu.dcache.WriteLineReq.accesses::cpu.data      8251715                       # number of WriteLineReq accesses(hits+misses) (Count)
system.cpu.dcache.WriteLineReq.accesses::total      8251715                       # number of WriteLineReq accesses(hits+misses) (Count)
system.cpu.dcache.WriteLineReq.missRate::cpu.data     0.999999                       # miss rate for WriteLineReq accesses (Ratio)
system.cpu.dcache.WriteLineReq.missRate::total     0.999999                       # miss rate for WriteLineReq accesses (Ratio)
system.cpu.dcache.WriteLineReq.avgMissLatency::cpu.data 31726.021631                       # average WriteLineReq miss latency ((Tick/Count))
system.cpu.dcache.WriteLineReq.avgMissLatency::total 31726.021631                       # average WriteLineReq miss latency ((Tick/Count))
system.cpu.dcache.WriteLineReq.mshrMisses::cpu.data      8251708                       # number of WriteLineReq MSHR misses (Count)
system.cpu.dcache.WriteLineReq.mshrMisses::total      8251708                       # number of WriteLineReq MSHR misses (Count)
system.cpu.dcache.WriteLineReq.mshrMissLatency::cpu.data 253542158500                       # number of WriteLineReq MSHR miss ticks (Tick)
system.cpu.dcache.WriteLineReq.mshrMissLatency::total 253542158500                       # number of WriteLineReq MSHR miss ticks (Tick)
system.cpu.dcache.WriteLineReq.mshrMissRate::cpu.data     0.999999                       # mshr miss rate for WriteLineReq accesses (Ratio)
system.cpu.dcache.WriteLineReq.mshrMissRate::total     0.999999                       # mshr miss rate for WriteLineReq accesses (Ratio)
system.cpu.dcache.WriteLineReq.avgMshrMissLatency::cpu.data 30726.021631                       # average WriteLineReq mshr miss latency ((Tick/Count))
system.cpu.dcache.WriteLineReq.avgMshrMissLatency::total 30726.021631                       # average WriteLineReq mshr miss latency ((Tick/Count))
system.cpu.dcache.WriteReq.hits::cpu.data      5026713                       # number of WriteReq hits (Count)
system.cpu.dcache.WriteReq.hits::total        5026713                       # number of WriteReq hits (Count)
system.cpu.dcache.WriteReq.misses::cpu.data        87114                       # number of WriteReq misses (Count)
system.cpu.dcache.WriteReq.misses::total        87114                       # number of WriteReq misses (Count)
system.cpu.dcache.WriteReq.missLatency::cpu.data   6038336500                       # number of WriteReq miss ticks (Tick)
system.cpu.dcache.WriteReq.missLatency::total   6038336500                       # number of WriteReq miss ticks (Tick)
system.cpu.dcache.WriteReq.accesses::cpu.data      5113827                       # number of WriteReq accesses(hits+misses) (Count)
system.cpu.dcache.WriteReq.accesses::total      5113827                       # number of WriteReq accesses(hits+misses) (Count)
system.cpu.dcache.WriteReq.missRate::cpu.data     0.017035                       # miss rate for WriteReq accesses (Ratio)
system.cpu.dcache.WriteReq.missRate::total     0.017035                       # miss rate for WriteReq accesses (Ratio)
system.cpu.dcache.WriteReq.avgMissLatency::cpu.data 69315.339670                       # average WriteReq miss latency ((Tick/Count))
system.cpu.dcache.WriteReq.avgMissLatency::total 69315.339670                       # average WriteReq miss latency ((Tick/Count))
system.cpu.dcache.WriteReq.mshrHits::cpu.data        40021                       # number of WriteReq MSHR hits (Count)
system.cpu.dcache.WriteReq.mshrHits::total        40021                       # number of WriteReq MSHR hits (Count)
system.cpu.dcache.WriteReq.mshrMisses::cpu.data        47093                       # number of WriteReq MSHR misses (Count)
system.cpu.dcache.WriteReq.mshrMisses::total        47093                       # number of WriteReq MSHR misses (Count)
system.cpu.dcache.WriteReq.mshrMissLatency::cpu.data   3241761000                       # number of WriteReq MSHR miss ticks (Tick)
system.cpu.dcache.WriteReq.mshrMissLatency::total   3241761000                       # number of WriteReq MSHR miss ticks (Tick)
system.cpu.dcache.WriteReq.mshrMissRate::cpu.data     0.009209                       # mshr miss rate for WriteReq accesses (Ratio)
system.cpu.dcache.WriteReq.mshrMissRate::total     0.009209                       # mshr miss rate for WriteReq accesses (Ratio)
system.cpu.dcache.WriteReq.avgMshrMissLatency::cpu.data 68837.428068                       # average WriteReq mshr miss latency ((Tick/Count))
system.cpu.dcache.WriteReq.avgMshrMissLatency::total 68837.428068                       # average WriteReq mshr miss latency ((Tick/Count))
system.cpu.dcache.power_state.pwrStateResidencyTicks::UNDEFINED 206560485000                       # Cumulative time (in ticks) in various power states (Tick)
system.cpu.dcache.tags.tagsInUse          1022.904197                       # Average ticks per tags in use ((Tick/Count))
system.cpu.dcache.tags.totalRefs             34190576                       # Total number of references to valid blocks. (Count)
system.cpu.dcache.tags.sampledRefs            8330284                       # Sample count of references to valid blocks. (Count)
system.cpu.dcache.tags.avgRefs               4.104371                       # Average number of references to valid blocks. ((Count/Count))
system.cpu.dcache.tags.warmupTick              177500                       # The tick when the warmup percentage was hit. (Tick)
system.cpu.dcache.tags.occupancies::cpu.data  1022.904197                       # Average occupied blocks per tick, per requestor ((Count/Tick))
system.cpu.dcache.tags.avgOccs::cpu.data     0.998930                       # Average percentage of cache occupancy ((Ratio/Tick))
system.cpu.dcache.tags.avgOccs::total        0.998930                       # Average percentage of cache occupancy ((Ratio/Tick))
system.cpu.dcache.tags.occupanciesTaskId::1024         1024                       # Occupied blocks per task id (Count)
system.cpu.dcache.tags.ageTaskId_1024::0           12                       # Occupied blocks per task id, per block age (Count)
system.cpu.dcache.tags.ageTaskId_1024::1           37                       # Occupied blocks per task id, per block age (Count)
system.cpu.dcache.tags.ageTaskId_1024::2          355                       # Occupied blocks per task id, per block age (Count)
system.cpu.dcache.tags.ageTaskId_1024::3          421                       # Occupied blocks per task id, per block age (Count)
system.cpu.dcache.tags.ageTaskId_1024::4          199                       # Occupied blocks per task id, per block age (Count)
system.cpu.dcache.tags.ratioOccsTaskId::1024            1                       # Ratio of occupied blocks and all blocks, per task id (Ratio)
system.cpu.dcache.tags.tagAccesses           76791568                       # Number of tag accesses (Count)
system.cpu.dcache.tags.dataAccesses          76791568                       # Number of data accesses (Count)
system.cpu.dcache.tags.power_state.pwrStateResidencyTicks::UNDEFINED 206560485000                       # Cumulative time (in ticks) in various power states (Tick)
system.cpu.fetch2.intInstructions            52736005                       # Number of integer instructions successfully decoded (Count)
system.cpu.fetch2.fpInstructions                    0                       # Number of floating point instructions successfully decoded (Count)
system.cpu.fetch2.vecInstructions               10031                       # Number of SIMD instructions successfully decoded (Count)
system.cpu.fetch2.loadInstructions           22410891                       # Number of memory load instructions successfully decoded (Count)
system.cpu.fetch2.storeInstructions          13188380                       # Number of memory store instructions successfully decoded (Count)
system.cpu.fetch2.amoInstructions                 313                       # Number of memory atomic instructions successfully decoded (Count)
system.cpu.icache.demandHits::cpu.inst       34950132                       # number of demand (read+write) hits (Count)
system.cpu.icache.demandHits::total          34950132                       # number of demand (read+write) hits (Count)
system.cpu.icache.overallHits::cpu.inst      34950132                       # number of overall hits (Count)
system.cpu.icache.overallHits::total         34950132                       # number of overall hits (Count)
system.cpu.icache.demandMisses::cpu.inst      3004963                       # number of demand (read+write) misses (Count)
system.cpu.icache.demandMisses::total         3004963                       # number of demand (read+write) misses (Count)
system.cpu.icache.overallMisses::cpu.inst      3004963                       # number of overall misses (Count)
system.cpu.icache.overallMisses::total        3004963                       # number of overall misses (Count)
system.cpu.icache.demandMissLatency::cpu.inst  39386158500                       # number of demand (read+write) miss ticks (Tick)
system.cpu.icache.demandMissLatency::total  39386158500                       # number of demand (read+write) miss ticks (Tick)
system.cpu.icache.overallMissLatency::cpu.inst  39386158500                       # number of overall miss ticks (Tick)
system.cpu.icache.overallMissLatency::total  39386158500                       # number of overall miss ticks (Tick)
system.cpu.icache.demandAccesses::cpu.inst     37955095                       # number of demand (read+write) accesses (Count)
system.cpu.icache.demandAccesses::total      37955095                       # number of demand (read+write) accesses (Count)
system.cpu.icache.overallAccesses::cpu.inst     37955095                       # number of overall (read+write) accesses (Count)
system.cpu.icache.overallAccesses::total     37955095                       # number of overall (read+write) accesses (Count)
system.cpu.icache.demandMissRate::cpu.inst     0.079172                       # miss rate for demand accesses (Ratio)
system.cpu.icache.demandMissRate::total      0.079172                       # miss rate for demand accesses (Ratio)
system.cpu.icache.overallMissRate::cpu.inst     0.079172                       # miss rate for overall accesses (Ratio)
system.cpu.icache.overallMissRate::total     0.079172                       # miss rate for overall accesses (Ratio)
system.cpu.icache.demandAvgMissLatency::cpu.inst 13107.036093                       # average overall miss latency in ticks ((Tick/Count))
system.cpu.icache.demandAvgMissLatency::total 13107.036093                       # average overall miss latency in ticks ((Tick/Count))
system.cpu.icache.overallAvgMissLatency::cpu.inst 13107.036093                       # average overall miss latency ((Tick/Count))
system.cpu.icache.overallAvgMissLatency::total 13107.036093                       # average overall miss latency ((Tick/Count))
system.cpu.icache.blockedCycles::no_mshrs            0                       # number of cycles access was blocked (Cycle)
system.cpu.icache.blockedCycles::no_targets            0                       # number of cycles access was blocked (Cycle)
system.cpu.icache.blockedCauses::no_mshrs            0                       # number of times access was blocked (Count)
system.cpu.icache.blockedCauses::no_targets            0                       # number of times access was blocked (Count)
system.cpu.icache.avgBlocked::no_mshrs            nan                       # average number of cycles each access was blocked ((Cycle/Count))
system.cpu.icache.avgBlocked::no_targets          nan                       # average number of cycles each access was blocked ((Cycle/Count))
system.cpu.icache.writebacks::writebacks      3004899                       # number of writebacks (Count)
system.cpu.icache.writebacks::total           3004899                       # number of writebacks (Count)
system.cpu.icache.demandMshrMisses::cpu.inst      3004963                       # number of demand (read+write) MSHR misses (Count)
system.cpu.icache.demandMshrMisses::total      3004963                       # number of demand (read+write) MSHR misses (Count)
system.cpu.icache.overallMshrMisses::cpu.inst      3004963                       # number of overall MSHR misses (Count)
system.cpu.icache.overallMshrMisses::total      3004963                       # number of overall MSHR misses (Count)
system.cpu.icache.demandMshrMissLatency::cpu.inst  36381195500                       # number of demand (read+write) MSHR miss ticks (Tick)
system.cpu.icache.demandMshrMissLatency::total  36381195500                       # number of demand (read+write) MSHR miss ticks (Tick)
system.cpu.icache.overallMshrMissLatency::cpu.inst  36381195500                       # number of overall MSHR miss ticks (Tick)
system.cpu.icache.overallMshrMissLatency::total  36381195500                       # number of overall MSHR miss ticks (Tick)
system.cpu.icache.demandMshrMissRate::cpu.inst     0.079172                       # mshr miss ratio for demand accesses (Ratio)
system.cpu.icache.demandMshrMissRate::total     0.079172                       # mshr miss ratio for demand accesses (Ratio)
system.cpu.icache.overallMshrMissRate::cpu.inst     0.079172                       # mshr miss ratio for overall accesses (Ratio)
system.cpu.icache.overallMshrMissRate::total     0.079172                       # mshr miss ratio for overall accesses (Ratio)
system.cpu.icache.demandAvgMshrMissLatency::cpu.inst 12107.036093                       # average overall mshr miss latency ((Tick/Count))
system.cpu.icache.demandAvgMshrMissLatency::total 12107.036093                       # average overall mshr miss latency ((Tick/Count))
system.cpu.icache.overallAvgMshrMissLatency::cpu.inst 12107.036093                       # average overall mshr miss latency ((Tick/Count))
system.cpu.icache.overallAvgMshrMissLatency::total 12107.036093                       # average overall mshr miss latency ((Tick/Count))
system.cpu.icache.replacements                3004899                       # number of replacements (Count)
system.cpu.icache.ReadReq.hits::cpu.inst     34950132                       # number of ReadReq hits (Count)
system.cpu.icache.ReadReq.hits::total        34950132                       # number of ReadReq hits (Count)
system.cpu.icache.ReadReq.misses::cpu.inst      3004963                       # number of ReadReq misses (Count)
system.cpu.icache.ReadReq.misses::total       3004963                       # number of ReadReq misses (Count)
system.cpu.icache.ReadReq.missLatency::cpu.inst  39386158500                       # number of ReadReq miss ticks (Tick)
system.cpu.icache.ReadReq.missLatency::total  39386158500                       # number of ReadReq miss ticks (Tick)
system.cpu.icache.ReadReq.accesses::cpu.inst     37955095                       # number of ReadReq accesses(hits+misses) (Count)
system.cpu.icache.ReadReq.accesses::total     37955095                       # number of ReadReq accesses(hits+misses) (Count)
system.cpu.icache.ReadReq.missRate::cpu.inst     0.079172                       # miss rate for ReadReq accesses (Ratio)
system.cpu.icache.ReadReq.missRate::total     0.079172                       # miss rate for ReadReq accesses (Ratio)
system.cpu.icache.ReadReq.avgMissLatency::cpu.inst 13107.036093                       # average ReadReq miss latency ((Tick/Count))
system.cpu.icache.ReadReq.avgMissLatency::total 13107.036093                       # average ReadReq miss latency ((Tick/Count))
system.cpu.icache.ReadReq.mshrMisses::cpu.inst      3004963                       # number of ReadReq MSHR misses (Count)
system.cpu.icache.ReadReq.mshrMisses::total      3004963                       # number of ReadReq MSHR misses (Count)
system.cpu.icache.ReadReq.mshrMissLatency::cpu.inst  36381195500                       # number of ReadReq MSHR miss ticks (Tick)
system.cpu.icache.ReadReq.mshrMissLatency::total  36381195500                       # number of ReadReq MSHR miss ticks (Tick)
system.cpu.icache.ReadReq.mshrMissRate::cpu.inst     0.079172                       # mshr miss rate for ReadReq accesses (Ratio)
system.cpu.icache.ReadReq.mshrMissRate::total     0.079172                       # mshr miss rate for ReadReq accesses (Ratio)
system.cpu.icache.ReadReq.avgMshrMissLatency::cpu.inst 12107.036093                       # average ReadReq mshr miss latency ((Tick/Count))
system.cpu.icache.ReadReq.avgMshrMissLatency::total 12107.036093                       # average ReadReq mshr miss latency ((Tick/Count))
system.cpu.icache.power_state.pwrStateResidencyTicks::UNDEFINED 206560485000                       # Cumulative time (in ticks) in various power states (Tick)
system.cpu.icache.tags.tagsInUse            63.998772                       # Average ticks per tags in use ((Tick/Count))
system.cpu.icache.tags.totalRefs             37955095                       # Total number of references to valid blocks. (Count)
system.cpu.icache.tags.sampledRefs            3004963                       # Sample count of references to valid blocks. (Count)
system.cpu.icache.tags.avgRefs              12.630803                       # Average number of references to valid blocks. ((Count/Count))
system.cpu.icache.tags.warmupTick               87500                       # The tick when the warmup percentage was hit. (Tick)
system.cpu.icache.tags.occupancies::cpu.inst    63.998772                       # Average occupied blocks per tick, per requestor ((Count/Tick))
system.cpu.icache.tags.avgOccs::cpu.inst     0.999981                       # Average percentage of cache occupancy ((Ratio/Tick))
system.cpu.icache.tags.avgOccs::total        0.999981                       # Average percentage of cache occupancy ((Ratio/Tick))
system.cpu.icache.tags.occupanciesTaskId::1024           64                       # Occupied blocks per task id (Count)
system.cpu.icache.tags.ageTaskId_1024::0           64                       # Occupied blocks per task id, per block age (Count)
system.cpu.icache.tags.ratioOccsTaskId::1024            1                       # Ratio of occupied blocks and all blocks, per task id (Ratio)
system.cpu.icache.tags.tagAccesses           78915153                       # Number of tag accesses (Count)
system.cpu.icache.tags.dataAccesses          78915153                       # Number of data accesses (Count)
system.cpu.icache.tags.power_state.pwrStateResidencyTicks::UNDEFINED 206560485000                       # Cumulative time (in ticks) in various power states (Tick)
system.cpu.mmu.alignFaults                          0                       # Number of MMU faults due to alignment restrictions (Count)
system.cpu.mmu.prefetchFaults                       0                       # Number of MMU faults due to prefetch (Count)
system.cpu.mmu.domainFaults                         0                       # Number of MMU faults due to domain restrictions (Count)
system.cpu.mmu.permsFaults                          0                       # Number of MMU faults due to permissions restrictions (Count)
system.cpu.mmu.dtb.readHits                         0                       # Read hits (Count)
system.cpu.mmu.dtb.readMisses                       0                       # Read misses (Count)
system.cpu.mmu.dtb.writeHits                        0                       # Write hits (Count)
system.cpu.mmu.dtb.writeMisses                      0                       # Write misses (Count)
system.cpu.mmu.dtb.inserts                          0                       # Number of times an entry is inserted into the TLB (Count)
system.cpu.mmu.dtb.flushTlb                         0                       # Number of times complete TLB was flushed (Count)
system.cpu.mmu.dtb.flushTlbMva                      0                       # Number of times TLB was flushed by MVA (Count)
system.cpu.mmu.dtb.flushTlbMvaAsid                  0                       # Number of times TLB was flushed by MVA & ASID (Count)
system.cpu.mmu.dtb.flushTlbAsid                     0                       # Number of times TLB was flushed by ASID (Count)
system.cpu.mmu.dtb.flushedEntries                   0                       # Number of entries that have been flushed from TLB (Count)
system.cpu.mmu.dtb.readAccesses                     0                       # Read accesses (Count)
system.cpu.mmu.dtb.writeAccesses                    0                       # Write accesses (Count)
system.cpu.mmu.dtb.hits                             0                       # Total TLB (inst and data) hits (Count)
system.cpu.mmu.dtb.misses                           0                       # Total TLB (inst and data) misses (Count)
system.cpu.mmu.dtb.accesses                         0                       # Total TLB (inst and data) accesses (Count)
system.cpu.mmu.dtb_walker.walks                     0                       # Table walker walks requested (Count)
system.cpu.mmu.dtb_walker.requestOrigin_Requested::Data            0                       # Table walker requests started/completed, data/inst (Count)
system.cpu.mmu.dtb_walker.requestOrigin_Requested::Inst            0                       # Table walker requests started/completed, data/inst (Count)
system.cpu.mmu.dtb_walker.requestOrigin_Requested::total            0                       # Table walker requests started/completed, data/inst (Count)
system.cpu.mmu.dtb_walker.requestOrigin_Completed::Data            0                       # Table walker requests started/completed, data/inst (Count)
system.cpu.mmu.dtb_walker.requestOrigin_Completed::Inst            0                       # Table walker requests started/completed, data/inst (Count)
system.cpu.mmu.dtb_walker.requestOrigin_Completed::total            0                       # Table walker requests started/completed, data/inst (Count)
system.cpu.mmu.dtb_walker.requestOrigin::total            0                       # Table walker requests started/completed, data/inst (Count)
system.cpu.mmu.dtb_walker.power_state.pwrStateResidencyTicks::UNDEFINED 206560485000                       # Cumulative time (in ticks) in various power states (Tick)
system.cpu.mmu.itb.instHits                         0                       # Inst hits (Count)
system.cpu.mmu.itb.instMisses                       0                       # Inst misses (Count)
system.cpu.mmu.itb.inserts                          0                       # Number of times an entry is inserted into the TLB (Count)
system.cpu.mmu.itb.flushTlb                         0                       # Number of times complete TLB was flushed (Count)
system.cpu.mmu.itb.flushTlbMva                      0                       # Number of times TLB was flushed by MVA (Count)
system.cpu.mmu.itb.flushTlbMvaAsid                  0                       # Number of times TLB was flushed by MVA & ASID (Count)
system.cpu.mmu.itb.flushTlbAsid                     0                       # Number of times TLB was flushed by ASID (Count)
system.cpu.mmu.itb.flushedEntries                   0                       # Number of entries that have been flushed from TLB (Count)
system.cpu.mmu.itb.instAccesses                     0                       # Inst accesses (Count)
system.cpu.mmu.itb.hits                             0                       # Total TLB (inst and data) hits (Count)
system.cpu.mmu.itb.misses                           0                       # Total TLB (inst and data) misses (Count)
system.cpu.mmu.itb.accesses                         0                       # Total TLB (inst and data) accesses (Count)
system.cpu.mmu.itb_walker.walks                     0                       # Table walker walks requested (Count)
system.cpu.mmu.itb_walker.requestOrigin_Requested::Data            0                       # Table walker requests started/completed, data/inst (Count)
system.cpu.mmu.itb_walker.requestOrigin_Requested::Inst            0                       # Table walker requests started/completed, data/inst (Count)
system.cpu.mmu.itb_walker.requestOrigin_Requested::total            0                       # Table walker requests started/completed, data/inst (Count)
system.cpu.mmu.itb_walker.requestOrigin_Completed::Data            0                       # Table walker requests started/completed, data/inst (Count)
system.cpu.mmu.itb_walker.requestOrigin_Completed::Inst            0                       # Table walker requests started/completed, data/inst (Count)
system.cpu.mmu.itb_walker.requestOrigin_Completed::total            0                       # Table walker requests started/completed, data/inst (Count)
system.cpu.mmu.itb_walker.requestOrigin::total            0                       # Table walker requests started/completed, data/inst (Count)
system.cpu.mmu.itb_walker.power_state.pwrStateResidencyTicks::UNDEFINED 206560485000                       # Cumulative time (in ticks) in various power states (Tick)
system.cpu.mmu.l2_shared.instHits                   0                       # Inst hits (Count)
system.cpu.mmu.l2_shared.instMisses                 0                       # Inst misses (Count)
system.cpu.mmu.l2_shared.inserts                    0                       # Number of times an entry is inserted into the TLB (Count)
system.cpu.mmu.l2_shared.flushTlb                   0                       # Number of times complete TLB was flushed (Count)
system.cpu.mmu.l2_shared.flushTlbMva                0                       # Number of times TLB was flushed by MVA (Count)
system.cpu.mmu.l2_shared.flushTlbMvaAsid            0                       # Number of times TLB was flushed by MVA & ASID (Count)
system.cpu.mmu.l2_shared.flushTlbAsid               0                       # Number of times TLB was flushed by ASID (Count)
system.cpu.mmu.l2_shared.flushedEntries             0                       # Number of entries that have been flushed from TLB (Count)
system.cpu.mmu.l2_shared.instAccesses               0                       # Inst accesses (Count)
system.cpu.mmu.l2_shared.hits                       0                       # Total TLB (inst and data) hits (Count)
system.cpu.mmu.l2_shared.misses                     0                       # Total TLB (inst and data) misses (Count)
system.cpu.mmu.l2_shared.accesses                   0                       # Total TLB (inst and data) accesses (Count)
system.cpu.mmu.stage2_dtb.readHits                  0                       # Read hits (Count)
system.cpu.mmu.stage2_dtb.readMisses                0                       # Read misses (Count)
system.cpu.mmu.stage2_dtb.writeHits                 0                       # Write hits (Count)
system.cpu.mmu.stage2_dtb.writeMisses               0                       # Write misses (Count)
system.cpu.mmu.stage2_dtb.inserts                   0                       # Number of times an entry is inserted into the TLB (Count)
system.cpu.mmu.stage2_dtb.flushTlb                  0                       # Number of times complete TLB was flushed (Count)
system.cpu.mmu.stage2_dtb.flushTlbMva               0                       # Number of times TLB was flushed by MVA (Count)
system.cpu.mmu.stage2_dtb.flushTlbMvaAsid            0                       # Number of times TLB was flushed by MVA & ASID (Count)
system.cpu.mmu.stage2_dtb.flushTlbAsid              0                       # Number of times TLB was flushed by ASID (Count)
system.cpu.mmu.stage2_dtb.flushedEntries            0                       # Number of entries that have been flushed from TLB (Count)
system.cpu.mmu.stage2_dtb.readAccesses              0                       # Read accesses (Count)
system.cpu.mmu.stage2_dtb.writeAccesses             0                       # Write accesses (Count)
system.cpu.mmu.stage2_dtb.hits                      0                       # Total TLB (inst and data) hits (Count)
system.cpu.mmu.stage2_dtb.misses                    0                       # Total TLB (inst and data) misses (Count)
system.cpu.mmu.stage2_dtb.accesses                  0                       # Total TLB (inst and data) accesses (Count)
system.cpu.mmu.stage2_dtb_walker.walks              0                       # Table walker walks requested (Count)
system.cpu.mmu.stage2_dtb_walker.requestOrigin_Requested::Data            0                       # Table walker requests started/completed, data/inst (Count)
system.cpu.mmu.stage2_dtb_walker.requestOrigin_Requested::Inst            0                       # Table walker requests started/completed, data/inst (Count)
system.cpu.mmu.stage2_dtb_walker.requestOrigin_Requested::total            0                       # Table walker requests started/completed, data/inst (Count)
system.cpu.mmu.stage2_dtb_walker.requestOrigin_Completed::Data            0                       # Table walker requests started/completed, data/inst (Count)
system.cpu.mmu.stage2_dtb_walker.requestOrigin_Completed::Inst            0                       # Table walker requests started/completed, data/inst (Count)
system.cpu.mmu.stage2_dtb_walker.requestOrigin_Completed::total            0                       # Table walker requests started/completed, data/inst (Count)
system.cpu.mmu.stage2_dtb_walker.requestOrigin::total            0                       # Table walker requests started/completed, data/inst (Count)
system.cpu.mmu.stage2_dtb_walker.power_state.pwrStateResidencyTicks::UNDEFINED 206560485000                       # Cumulative time (in ticks) in various power states (Tick)
system.cpu.mmu.stage2_itb.instHits                  0                       # Inst hits (Count)
system.cpu.mmu.stage2_itb.instMisses                0                       # Inst misses (Count)
system.cpu.mmu.stage2_itb.inserts                   0                       # Number of times an entry is inserted into the TLB (Count)
system.cpu.mmu.stage2_itb.flushTlb                  0                       # Number of times complete TLB was flushed (Count)
system.cpu.mmu.stage2_itb.flushTlbMva               0                       # Number of times TLB was flushed by MVA (Count)
system.cpu.mmu.stage2_itb.flushTlbMvaAsid            0                       # Number of times TLB was flushed by MVA & ASID (Count)
system.cpu.mmu.stage2_itb.flushTlbAsid              0                       # Number of times TLB was flushed by ASID (Count)
system.cpu.mmu.stage2_itb.flushedEntries            0                       # Number of entries that have been flushed from TLB (Count)
system.cpu.mmu.stage2_itb.instAccesses              0                       # Inst accesses (Count)
system.cpu.mmu.stage2_itb.hits                      0                       # Total TLB (inst and data) hits (Count)
system.cpu.mmu.stage2_itb.misses                    0                       # Total TLB (inst and data) misses (Count)
system.cpu.mmu.stage2_itb.accesses                  0                       # Total TLB (inst and data) accesses (Count)
system.cpu.mmu.stage2_itb_walker.walks              0                       # Table walker walks requested (Count)
system.cpu.mmu.stage2_itb_walker.requestOrigin_Requested::Data            0                       # Table walker requests started/completed, data/inst (Count)
system.cpu.mmu.stage2_itb_walker.requestOrigin_Requested::Inst            0                       # Table walker requests started/completed, data/inst (Count)
system.cpu.mmu.stage2_itb_walker.requestOrigin_Requested::total            0                       # Table walker requests started/completed, data/inst (Count)
system.cpu.mmu.stage2_itb_walker.requestOrigin_Completed::Data            0                       # Table walker requests started/completed, data/inst (Count)
system.cpu.mmu.stage2_itb_walker.requestOrigin_Completed::Inst            0                       # Table walker requests started/completed, data/inst (Count)
system.cpu.mmu.stage2_itb_walker.requestOrigin_Completed::total            0                       # Table walker requests started/completed, data/inst (Count)
system.cpu.mmu.stage2_itb_walker.requestOrigin::total            0                       # Table walker requests started/completed, data/inst (Count)
system.cpu.mmu.stage2_itb_walker.power_state.pwrStateResidencyTicks::UNDEFINED 206560485000                       # Cumulative time (in ticks) in various power states (Tick)
system.cpu.power_state.pwrStateResidencyTicks::ON 206560485000                       # Cumulative time (in ticks) in various power states (Tick)
system.cpu.thread_0.numInsts                100000000                       # Number of Instructions committed (Count)
system.cpu.thread_0.numOps                  101168649                       # Number of Ops committed (Count)
system.cpu.thread_0.numMemRefs                      0                       # Number of Memory References (Count)
system.cpu.workload.numSyscalls                   157                       # Number of system calls (Count)
system.cpu_clk_domain.clock                       500                       # Clock period in ticks (Tick)
system.cpu_voltage_domain.voltage                   1                       # Voltage in Volts (Volt)
system.l2.demandHits::cpu.inst                3002012                       # number of demand (read+write) hits (Count)
system.l2.demandHits::cpu.data                  33713                       # number of demand (read+write) hits (Count)
system.l2.demandHits::total                   3035725                       # number of demand (read+write) hits (Count)
system.l2.overallHits::cpu.inst               3002012                       # number of overall hits (Count)
system.l2.overallHits::cpu.data                 33713                       # number of overall hits (Count)
system.l2.overallHits::total                  3035725                       # number of overall hits (Count)
system.l2.demandMisses::cpu.inst                 2951                       # number of demand (read+write) misses (Count)
system.l2.demandMisses::cpu.data                44863                       # number of demand (read+write) misses (Count)
system.l2.demandMisses::total                   47814                       # number of demand (read+write) misses (Count)
system.l2.overallMisses::cpu.inst                2951                       # number of overall misses (Count)
system.l2.overallMisses::cpu.data               44863                       # number of overall misses (Count)
system.l2.overallMisses::total                  47814                       # number of overall misses (Count)
system.l2.demandMissLatency::cpu.inst       245667500                       # number of demand (read+write) miss ticks (Tick)
system.l2.demandMissLatency::cpu.data      3692127000                       # number of demand (read+write) miss ticks (Tick)
system.l2.demandMissLatency::total         3937794500                       # number of demand (read+write) miss ticks (Tick)
system.l2.overallMissLatency::cpu.inst      245667500                       # number of overall miss ticks (Tick)
system.l2.overallMissLatency::cpu.data     3692127000                       # number of overall miss ticks (Tick)
system.l2.overallMissLatency::total        3937794500                       # number of overall miss ticks (Tick)
system.l2.demandAccesses::cpu.inst            3004963                       # number of demand (read+write) accesses (Count)
system.l2.demandAccesses::cpu.data              78576                       # number of demand (read+write) accesses (Count)
system.l2.demandAccesses::total               3083539                       # number of demand (read+write) accesses (Count)
system.l2.overallAccesses::cpu.inst           3004963                       # number of overall (read+write) accesses (Count)
system.l2.overallAccesses::cpu.data             78576                       # number of overall (read+write) accesses (Count)
system.l2.overallAccesses::total              3083539                       # number of overall (read+write) accesses (Count)
system.l2.demandMissRate::cpu.inst           0.000982                       # miss rate for demand accesses (Ratio)
system.l2.demandMissRate::cpu.data           0.570950                       # miss rate for demand accesses (Ratio)
system.l2.demandMissRate::total              0.015506                       # miss rate for demand accesses (Ratio)
system.l2.overallMissRate::cpu.inst          0.000982                       # miss rate for overall accesses (Ratio)
system.l2.overallMissRate::cpu.data          0.570950                       # miss rate for overall accesses (Ratio)
system.l2.overallMissRate::total             0.015506                       # miss rate for overall accesses (Ratio)
system.l2.demandAvgMissLatency::cpu.inst 83248.898678                       # average overall miss latency in ticks ((Tick/Count))
system.l2.demandAvgMissLatency::cpu.data 82297.817801                       # average overall miss latency in ticks ((Tick/Count))
system.l2.demandAvgMissLatency::total    82356.516920                       # average overall miss latency in ticks ((Tick/Count))
system.l2.overallAvgMissLatency::cpu.inst 83248.898678                       # average overall miss latency ((Tick/Count))
system.l2.overallAvgMissLatency::cpu.data 82297.817801                       # average overall miss latency ((Tick/Count))
system.l2.overallAvgMissLatency::total   82356.516920                       # average overall miss latency ((Tick/Count))
system.l2.blockedCycles::no_mshrs                   0                       # number of cycles access was blocked (Cycle)
system.l2.blockedCycles::no_targets                 0                       # number of cycles access was blocked (Cycle)
system.l2.blockedCauses::no_mshrs                   0                       # number of times access was blocked (Count)
system.l2.blockedCauses::no_targets                 0                       # number of times access was blocked (Count)
system.l2.avgBlocked::no_mshrs                    nan                       # average number of cycles each access was blocked ((Cycle/Count))
system.l2.avgBlocked::no_targets                  nan                       # average number of cycles each access was blocked ((Cycle/Count))
system.l2.writebacks::writebacks              8265003                       # number of writebacks (Count)
system.l2.writebacks::total                   8265003                       # number of writebacks (Count)
system.l2.demandMshrMisses::cpu.inst             2951                       # number of demand (read+write) MSHR misses (Count)
system.l2.demandMshrMisses::cpu.data            44863                       # number of demand (read+write) MSHR misses (Count)
system.l2.demandMshrMisses::total               47814                       # number of demand (read+write) MSHR misses (Count)
system.l2.overallMshrMisses::cpu.inst            2951                       # number of overall MSHR misses (Count)
system.l2.overallMshrMisses::cpu.data           44863                       # number of overall MSHR misses (Count)
system.l2.overallMshrMisses::total              47814                       # number of overall MSHR misses (Count)
system.l2.demandMshrMissLatency::cpu.inst    216157500                       # number of demand (read+write) MSHR miss ticks (Tick)
system.l2.demandMshrMissLatency::cpu.data   3243497000                       # number of demand (read+write) MSHR miss ticks (Tick)
system.l2.demandMshrMissLatency::total     3459654500                       # number of demand (read+write) MSHR miss ticks (Tick)
system.l2.overallMshrMissLatency::cpu.inst    216157500                       # number of overall MSHR miss ticks (Tick)
system.l2.overallMshrMissLatency::cpu.data   3243497000                       # number of overall MSHR miss ticks (Tick)
system.l2.overallMshrMissLatency::total    3459654500                       # number of overall MSHR miss ticks (Tick)
system.l2.demandMshrMissRate::cpu.inst       0.000982                       # mshr miss ratio for demand accesses (Ratio)
system.l2.demandMshrMissRate::cpu.data       0.570950                       # mshr miss ratio for demand accesses (Ratio)
system.l2.demandMshrMissRate::total          0.015506                       # mshr miss ratio for demand accesses (Ratio)
system.l2.overallMshrMissRate::cpu.inst      0.000982                       # mshr miss ratio for overall accesses (Ratio)
system.l2.overallMshrMissRate::cpu.data      0.570950                       # mshr miss ratio for overall accesses (Ratio)
system.l2.overallMshrMissRate::total         0.015506                       # mshr miss ratio for overall accesses (Ratio)
system.l2.demandAvgMshrMissLatency::cpu.inst 73248.898678                       # average overall mshr miss latency ((Tick/Count))
system.l2.demandAvgMshrMissLatency::cpu.data 72297.817801                       # average overall mshr miss latency ((Tick/Count))
system.l2.demandAvgMshrMissLatency::total 72356.516920                       # average overall mshr miss latency ((Tick/Count))
system.l2.overallAvgMshrMissLatency::cpu.inst 73248.898678                       # average overall mshr miss latency ((Tick/Count))
system.l2.overallAvgMshrMissLatency::cpu.data 72297.817801                       # average overall mshr miss latency ((Tick/Count))
system.l2.overallAvgMshrMissLatency::total 72356.516920                       # average overall mshr miss latency ((Tick/Count))
system.l2.replacements                        8266963                       # number of replacements (Count)
system.l2.CleanEvict.mshrMisses::writebacks            2                       # number of CleanEvict MSHR misses (Count)
system.l2.CleanEvict.mshrMisses::total              2                       # number of CleanEvict MSHR misses (Count)
system.l2.CleanEvict.mshrMissRate::writebacks          inf                       # mshr miss rate for CleanEvict accesses (Ratio)
system.l2.CleanEvict.mshrMissRate::total          inf                       # mshr miss rate for CleanEvict accesses (Ratio)
system.l2.InvalidateReq.hits::cpu.data             10                       # number of InvalidateReq hits (Count)
system.l2.InvalidateReq.hits::total                10                       # number of InvalidateReq hits (Count)
system.l2.InvalidateReq.misses::cpu.data      8251698                       # number of InvalidateReq misses (Count)
system.l2.InvalidateReq.misses::total         8251698                       # number of InvalidateReq misses (Count)
system.l2.InvalidateReq.accesses::cpu.data      8251708                       # number of InvalidateReq accesses(hits+misses) (Count)
system.l2.InvalidateReq.accesses::total       8251708                       # number of InvalidateReq accesses(hits+misses) (Count)
system.l2.InvalidateReq.missRate::cpu.data     0.999999                       # miss rate for InvalidateReq accesses (Ratio)
system.l2.InvalidateReq.missRate::total      0.999999                       # miss rate for InvalidateReq accesses (Ratio)
system.l2.InvalidateReq.mshrMisses::cpu.data      8251698                       # number of InvalidateReq MSHR misses (Count)
system.l2.InvalidateReq.mshrMisses::total      8251698                       # number of InvalidateReq MSHR misses (Count)
system.l2.InvalidateReq.mshrMissLatency::cpu.data 157602658000                       # number of InvalidateReq MSHR miss ticks (Tick)
system.l2.InvalidateReq.mshrMissLatency::total 157602658000                       # number of InvalidateReq MSHR miss ticks (Tick)
system.l2.InvalidateReq.mshrMissRate::cpu.data     0.999999                       # mshr miss rate for InvalidateReq accesses (Ratio)
system.l2.InvalidateReq.mshrMissRate::total     0.999999                       # mshr miss rate for InvalidateReq accesses (Ratio)
system.l2.InvalidateReq.avgMshrMissLatency::cpu.data 19099.421477                       # average InvalidateReq mshr miss latency ((Tick/Count))
system.l2.InvalidateReq.avgMshrMissLatency::total 19099.421477                       # average InvalidateReq mshr miss latency ((Tick/Count))
system.l2.ReadCleanReq.hits::cpu.inst         3002012                       # number of ReadCleanReq hits (Count)
system.l2.ReadCleanReq.hits::total            3002012                       # number of ReadCleanReq hits (Count)
system.l2.ReadCleanReq.misses::cpu.inst          2951                       # number of ReadCleanReq misses (Count)
system.l2.ReadCleanReq.misses::total             2951                       # number of ReadCleanReq misses (Count)
system.l2.ReadCleanReq.missLatency::cpu.inst    245667500                       # number of ReadCleanReq miss ticks (Tick)
system.l2.ReadCleanReq.missLatency::total    245667500                       # number of ReadCleanReq miss ticks (Tick)
system.l2.ReadCleanReq.accesses::cpu.inst      3004963                       # number of ReadCleanReq accesses(hits+misses) (Count)
system.l2.ReadCleanReq.accesses::total        3004963                       # number of ReadCleanReq accesses(hits+misses) (Count)
system.l2.ReadCleanReq.missRate::cpu.inst     0.000982                       # miss rate for ReadCleanReq accesses (Ratio)
system.l2.ReadCleanReq.missRate::total       0.000982                       # miss rate for ReadCleanReq accesses (Ratio)
system.l2.ReadCleanReq.avgMissLatency::cpu.inst 83248.898678                       # average ReadCleanReq miss latency ((Tick/Count))
system.l2.ReadCleanReq.avgMissLatency::total 83248.898678                       # average ReadCleanReq miss latency ((Tick/Count))
system.l2.ReadCleanReq.mshrMisses::cpu.inst         2951                       # number of ReadCleanReq MSHR misses (Count)
system.l2.ReadCleanReq.mshrMisses::total         2951                       # number of ReadCleanReq MSHR misses (Count)
system.l2.ReadCleanReq.mshrMissLatency::cpu.inst    216157500                       # number of ReadCleanReq MSHR miss ticks (Tick)
system.l2.ReadCleanReq.mshrMissLatency::total    216157500                       # number of ReadCleanReq MSHR miss ticks (Tick)
system.l2.ReadCleanReq.mshrMissRate::cpu.inst     0.000982                       # mshr miss rate for ReadCleanReq accesses (Ratio)
system.l2.ReadCleanReq.mshrMissRate::total     0.000982                       # mshr miss rate for ReadCleanReq accesses (Ratio)
system.l2.ReadCleanReq.avgMshrMissLatency::cpu.inst 73248.898678                       # average ReadCleanReq mshr miss latency ((Tick/Count))
system.l2.ReadCleanReq.avgMshrMissLatency::total 73248.898678                       # average ReadCleanReq mshr miss latency ((Tick/Count))
system.l2.ReadExReq.hits::cpu.data               9094                       # number of ReadExReq hits (Count)
system.l2.ReadExReq.hits::total                  9094                       # number of ReadExReq hits (Count)
system.l2.ReadExReq.misses::cpu.data            38002                       # number of ReadExReq misses (Count)
system.l2.ReadExReq.misses::total               38002                       # number of ReadExReq misses (Count)
system.l2.ReadExReq.missLatency::cpu.data   3075422500                       # number of ReadExReq miss ticks (Tick)
system.l2.ReadExReq.missLatency::total     3075422500                       # number of ReadExReq miss ticks (Tick)
system.l2.ReadExReq.accesses::cpu.data          47096                       # number of ReadExReq accesses(hits+misses) (Count)
system.l2.ReadExReq.accesses::total             47096                       # number of ReadExReq accesses(hits+misses) (Count)
system.l2.ReadExReq.missRate::cpu.data       0.806905                       # miss rate for ReadExReq accesses (Ratio)
system.l2.ReadExReq.missRate::total          0.806905                       # miss rate for ReadExReq accesses (Ratio)
system.l2.ReadExReq.avgMissLatency::cpu.data 80927.911689                       # average ReadExReq miss latency ((Tick/Count))
system.l2.ReadExReq.avgMissLatency::total 80927.911689                       # average ReadExReq miss latency ((Tick/Count))
system.l2.ReadExReq.mshrMisses::cpu.data        38002                       # number of ReadExReq MSHR misses (Count)
system.l2.ReadExReq.mshrMisses::total           38002                       # number of ReadExReq MSHR misses (Count)
system.l2.ReadExReq.mshrMissLatency::cpu.data   2695402500                       # number of ReadExReq MSHR miss ticks (Tick)
system.l2.ReadExReq.mshrMissLatency::total   2695402500                       # number of ReadExReq MSHR miss ticks (Tick)
system.l2.ReadExReq.mshrMissRate::cpu.data     0.806905                       # mshr miss rate for ReadExReq accesses (Ratio)
system.l2.ReadExReq.mshrMissRate::total      0.806905                       # mshr miss rate for ReadExReq accesses (Ratio)
system.l2.ReadExReq.avgMshrMissLatency::cpu.data 70927.911689                       # average ReadExReq mshr miss latency ((Tick/Count))
system.l2.ReadExReq.avgMshrMissLatency::total 70927.911689                       # average ReadExReq mshr miss latency ((Tick/Count))
system.l2.ReadSharedReq.hits::cpu.data          24619                       # number of ReadSharedReq hits (Count)
system.l2.ReadSharedReq.hits::total             24619                       # number of ReadSharedReq hits (Count)
system.l2.ReadSharedReq.misses::cpu.data         6861                       # number of ReadSharedReq misses (Count)
system.l2.ReadSharedReq.misses::total            6861                       # number of ReadSharedReq misses (Count)
system.l2.ReadSharedReq.missLatency::cpu.data    616704500                       # number of ReadSharedReq miss ticks (Tick)
system.l2.ReadSharedReq.missLatency::total    616704500                       # number of ReadSharedReq miss ticks (Tick)
system.l2.ReadSharedReq.accesses::cpu.data        31480                       # number of ReadSharedReq accesses(hits+misses) (Count)
system.l2.ReadSharedReq.accesses::total         31480                       # number of ReadSharedReq accesses(hits+misses) (Count)
system.l2.ReadSharedReq.missRate::cpu.data     0.217948                       # miss rate for ReadSharedReq accesses (Ratio)
system.l2.ReadSharedReq.missRate::total      0.217948                       # miss rate for ReadSharedReq accesses (Ratio)
system.l2.ReadSharedReq.avgMissLatency::cpu.data 89885.512316                       # average ReadSharedReq miss latency ((Tick/Count))
system.l2.ReadSharedReq.avgMissLatency::total 89885.512316                       # average ReadSharedReq miss latency ((Tick/Count))
system.l2.ReadSharedReq.mshrMisses::cpu.data         6861                       # number of ReadSharedReq MSHR misses (Count)
system.l2.ReadSharedReq.mshrMisses::total         6861                       # number of ReadSharedReq MSHR misses (Count)
system.l2.ReadSharedReq.mshrMissLatency::cpu.data    548094500                       # number of ReadSharedReq MSHR miss ticks (Tick)
system.l2.ReadSharedReq.mshrMissLatency::total    548094500                       # number of ReadSharedReq MSHR miss ticks (Tick)
system.l2.ReadSharedReq.mshrMissRate::cpu.data     0.217948                       # mshr miss rate for ReadSharedReq accesses (Ratio)
system.l2.ReadSharedReq.mshrMissRate::total     0.217948                       # mshr miss rate for ReadSharedReq accesses (Ratio)
system.l2.ReadSharedReq.avgMshrMissLatency::cpu.data 79885.512316                       # average ReadSharedReq mshr miss latency ((Tick/Count))
system.l2.ReadSharedReq.avgMshrMissLatency::total 79885.512316                       # average ReadSharedReq mshr miss latency ((Tick/Count))
system.l2.WritebackClean.hits::writebacks      3004896                       # number of WritebackClean hits (Count)
system.l2.WritebackClean.hits::total          3004896                       # number of WritebackClean hits (Count)
system.l2.WritebackClean.accesses::writebacks      3004896                       # number of WritebackClean accesses(hits+misses) (Count)
system.l2.WritebackClean.accesses::total      3004896                       # number of WritebackClean accesses(hits+misses) (Count)
system.l2.WritebackDirty.hits::writebacks      8312505                       # number of WritebackDirty hits (Count)
system.l2.WritebackDirty.hits::total          8312505                       # number of WritebackDirty hits (Count)
system.l2.WritebackDirty.accesses::writebacks      8312505                       # number of WritebackDirty accesses(hits+misses) (Count)
system.l2.WritebackDirty.accesses::total      8312505                       # number of WritebackDirty accesses(hits+misses) (Count)
system.l2.power_state.pwrStateResidencyTicks::UNDEFINED 206560485000                       # Cumulative time (in ticks) in various power states (Tick)
system.l2.tags.tagsInUse                 32346.811534                       # Average ticks per tags in use ((Tick/Count))
system.l2.tags.totalRefs                     14417703                       # Total number of references to valid blocks. (Count)
system.l2.tags.sampledRefs                    8299740                       # Sample count of references to valid blocks. (Count)
system.l2.tags.avgRefs                       1.737127                       # Average number of references to valid blocks. ((Count/Count))
system.l2.tags.warmupTick                       77000                       # The tick when the warmup percentage was hit. (Tick)
[...]
system.mem_ctrls.dram.perBankWrBursts::12       516646                       # Per bank write bursts (Count)
system.mem_ctrls.dram.perBankWrBursts::13       516559                       # Per bank write bursts (Count)
system.mem_ctrls.dram.perBankWrBursts::14       516381                       # Per bank write bursts (Count)
system.mem_ctrls.dram.perBankWrBursts::15       516640                       # Per bank write bursts (Count)
system.mem_ctrls.dram.totQLat               596626250                       # Total ticks spent queuing (Tick)
system.mem_ctrls.dram.totBusLat             239070000                       # Total ticks spent in databus transfers (Tick)
system.mem_ctrls.dram.totMemAccLat         1493138750                       # Total ticks spent from burst creation until serviced by the DRAM (Tick)
system.mem_ctrls.dram.avgQLat                12478.07                       # Average queueing delay per DRAM burst ((Tick/Count))
system.mem_ctrls.dram.avgBusLat               5000.00                       # Average bus latency per DRAM burst ((Tick/Count))
system.mem_ctrls.dram.avgMemAccLat           31228.07                       # Average memory access latency per DRAM burst ((Tick/Count))
system.mem_ctrls.dram.readRowHits               34992                       # Number of row buffer hits during reads (Count)
system.mem_ctrls.dram.writeRowHits            7722443                       # Number of row buffer hits during writes (Count)
system.mem_ctrls.dram.readRowHitRate            73.18                       # Row buffer hit rate for reads (Ratio)
system.mem_ctrls.dram.writeRowHitRate           93.44                       # Row buffer hit rate for writes (Ratio)
system.mem_ctrls.dram.bytesPerActivate::samples       555360                       # Bytes accessed per row activation (Byte)
system.mem_ctrls.dram.bytesPerActivate::mean   957.971190                       # Bytes accessed per row activation (Byte)
system.mem_ctrls.dram.bytesPerActivate::gmean   880.931983                       # Bytes accessed per row activation (Byte)
system.mem_ctrls.dram.bytesPerActivate::stdev   219.847534                       # Bytes accessed per row activation (Byte)
system.mem_ctrls.dram.bytesPerActivate::0-127        19375      3.49%      3.49% # Bytes accessed per row activation (Byte)
system.mem_ctrls.dram.bytesPerActivate::128-255         5832      1.05%      4.54% # Bytes accessed per row activation (Byte)
system.mem_ctrls.dram.bytesPerActivate::256-383         6123      1.10%      5.64% # Bytes accessed per row activation (Byte)
system.mem_ctrls.dram.bytesPerActivate::384-511         5454      0.98%      6.62% # Bytes accessed per row activation (Byte)
system.mem_ctrls.dram.bytesPerActivate::512-639         5330      0.96%      7.58% # Bytes accessed per row activation (Byte)
system.mem_ctrls.dram.bytesPerActivate::640-767         5566      1.00%      8.59% # Bytes accessed per row activation (Byte)
system.mem_ctrls.dram.bytesPerActivate::768-895         2579      0.46%      9.05% # Bytes accessed per row activation (Byte)
system.mem_ctrls.dram.bytesPerActivate::896-1023         6882      1.24%     10.29% # Bytes accessed per row activation (Byte)
system.mem_ctrls.dram.bytesPerActivate::1024-1151       498219     89.71%    100.00% # Bytes accessed per row activation (Byte)
system.mem_ctrls.dram.bytesPerActivate::total       555360                       # Bytes accessed per row activation (Byte)
system.mem_ctrls.dram.bytesRead               3060096                       # Total bytes read (Byte)
system.mem_ctrls.dram.bytesWritten          528958976                       # Total bytes written (Byte)
system.mem_ctrls.dram.avgRdBW               14.814528                       # Average DRAM read bandwidth in MiBytes/s ((Byte/Second))
system.mem_ctrls.dram.avgWrBW             2560.794607                       # Average DRAM write bandwidth in MiBytes/s ((Byte/Second))
system.mem_ctrls.dram.peakBW                 12800.00                       # Theoretical peak bandwidth in MiByte/s ((Byte/Second))
system.mem_ctrls.dram.busUtil                   20.12                       # Data bus utilization in percentage (Ratio)
system.mem_ctrls.dram.busUtilRead                0.12                       # Data bus utilization in percentage for reads (Ratio)
system.mem_ctrls.dram.busUtilWrite              20.01                       # Data bus utilization in percentage for writes (Ratio)
system.mem_ctrls.dram.pageHitRate               93.32                       # Row buffer hit rate, read and write combined (Ratio)
system.mem_ctrls.dram.power_state.pwrStateResidencyTicks::UNDEFINED 206560485000                       # Cumulative time (in ticks) in various power states (Tick)
system.mem_ctrls.dram.rank0.actEnergy      1986183780                       # Energy for activate commands per rank (pJ) (Joule)
system.mem_ctrls.dram.rank0.preEnergy      1055674125                       # Energy for precharge commands per rank (pJ) (Joule)
system.mem_ctrls.dram.rank0.readEnergy      174937140                       # Energy for read commands per rank (pJ) (Joule)
system.mem_ctrls.dram.rank0.writeEnergy   21567541860                       # Energy for write commands per rank (pJ) (Joule)
system.mem_ctrls.dram.rank0.refreshEnergy 16305169920.000002                       # Energy for refresh commands per rank (pJ) (Joule)
system.mem_ctrls.dram.rank0.actBackEnergy  45043526670                       # Energy for active background per rank (pJ) (Joule)
system.mem_ctrls.dram.rank0.preBackEnergy  41387835360                       # Energy for precharge background per rank (pJ) (Joule)
system.mem_ctrls.dram.rank0.actPowerDownEnergy            0                       # Energy for active power-down per rank (pJ) (Joule)
system.mem_ctrls.dram.rank0.prePowerDownEnergy            0                       # Energy for precharge power-down per rank (pJ) (Joule)
system.mem_ctrls.dram.rank0.selfRefreshEnergy            0                       # Energy for self refresh per rank (pJ) (Joule)
system.mem_ctrls.dram.rank0.totalEnergy  127520868855                       # Total energy per rank (pJ) (Joule)
system.mem_ctrls.dram.rank0.averagePower   617.353648                       # Core power per rank (mW) (Watt)
system.mem_ctrls.dram.rank0.totalIdleTime            0                       # Total Idle time Per DRAM Rank (Tick)
system.mem_ctrls.dram.rank0.pwrStateTime::IDLE 106293846250                       # Time in different power states (Tick)
system.mem_ctrls.dram.rank0.pwrStateTime::REF   6897280000                       # Time in different power states (Tick)
system.mem_ctrls.dram.rank0.pwrStateTime::SREF            0                       # Time in different power states (Tick)
system.mem_ctrls.dram.rank0.pwrStateTime::PRE_PDN            0                       # Time in different power states (Tick)
system.mem_ctrls.dram.rank0.pwrStateTime::ACT  93369358750                       # Time in different power states (Tick)
system.mem_ctrls.dram.rank0.pwrStateTime::ACT_PDN            0                       # Time in different power states (Tick)
system.mem_ctrls.dram.rank1.actEnergy      1979108040                       # Energy for activate commands per rank (pJ) (Joule)
system.mem_ctrls.dram.rank1.preEnergy      1051917075                       # Energy for precharge commands per rank (pJ) (Joule)
system.mem_ctrls.dram.rank1.readEnergy      166454820                       # Energy for read commands per rank (pJ) (Joule)
system.mem_ctrls.dram.rank1.writeEnergy   21575674620                       # Energy for write commands per rank (pJ) (Joule)
system.mem_ctrls.dram.rank1.refreshEnergy 16305169920.000002                       # Energy for refresh commands per rank (pJ) (Joule)
system.mem_ctrls.dram.rank1.actBackEnergy  44857419390                       # Energy for active background per rank (pJ) (Joule)
system.mem_ctrls.dram.rank1.preBackEnergy  41544557280                       # Energy for precharge background per rank (pJ) (Joule)
system.mem_ctrls.dram.rank1.actPowerDownEnergy            0                       # Energy for active power-down per rank (pJ) (Joule)
system.mem_ctrls.dram.rank1.prePowerDownEnergy            0                       # Energy for precharge power-down per rank (pJ) (Joule)
system.mem_ctrls.dram.rank1.selfRefreshEnergy            0                       # Energy for self refresh per rank (pJ) (Joule)
system.mem_ctrls.dram.rank1.totalEnergy  127480301145                       # Total energy per rank (pJ) (Joule)
system.mem_ctrls.dram.rank1.averagePower   617.157251                       # Core power per rank (mW) (Watt)
system.mem_ctrls.dram.rank1.totalIdleTime            0                       # Total Idle time Per DRAM Rank (Tick)
system.mem_ctrls.dram.rank1.pwrStateTime::IDLE 106687621250                       # Time in different power states (Tick)
system.mem_ctrls.dram.rank1.pwrStateTime::REF   6897280000                       # Time in different power states (Tick)
system.mem_ctrls.dram.rank1.pwrStateTime::SREF            0                       # Time in different power states (Tick)
system.mem_ctrls.dram.rank1.pwrStateTime::PRE_PDN            0                       # Time in different power states (Tick)
system.mem_ctrls.dram.rank1.pwrStateTime::ACT  92975583750                       # Time in different power states (Tick)
system.mem_ctrls.dram.rank1.pwrStateTime::ACT_PDN            0                       # Time in different power states (Tick)
system.mem_ctrls.power_state.pwrStateResidencyTicks::UNDEFINED 206560485000                       # Cumulative time (in ticks) in various power states (Tick)
system.membus.transDist::ReadResp                9812                       # Transaction distribution (Count)
system.membus.transDist::WritebackDirty       8265003                       # Transaction distribution (Count)
system.membus.transDist::CleanEvict              1741                       # Transaction distribution (Count)
system.membus.transDist::ReadExReq              38002                       # Transaction distribution (Count)
system.membus.transDist::ReadExResp             38002                       # Transaction distribution (Count)
system.membus.transDist::ReadSharedReq           9812                       # Transaction distribution (Count)
system.membus.transDist::InvalidateReq        8251698                       # Transaction distribution (Count)
system.membus.pktCount_system.l2.mem_side_port::system.mem_ctrls.port     16614070                       # Packet count per connected requestor and responder (Count)
system.membus.pktCount::total                16614070                       # Packet count per connected requestor and responder (Count)
system.membus.pktSize_system.l2.mem_side_port::system.mem_ctrls.port    532020288                       # Cumulative packet size per connected requestor and responder (Byte)
system.membus.pktSize::total                532020288                       # Cumulative packet size per connected requestor and responder (Byte)
system.membus.snoops                                0                       # Total snoops (Count)
system.membus.snoopTraffic                          0                       # Total snoop traffic (Byte)
system.membus.snoopFanout::samples            8299512                       # Request fanout histogram (Count)
system.membus.snoopFanout::mean                     0                       # Request fanout histogram (Count)
system.membus.snoopFanout::stdev                    0                       # Request fanout histogram (Count)
system.membus.snoopFanout::underflows               0      0.00%      0.00% # Request fanout histogram (Count)
system.membus.snoopFanout::0                  8299512    100.00%    100.00% # Request fanout histogram (Count)
system.membus.snoopFanout::1                        0      0.00%    100.00% # Request fanout histogram (Count)
system.membus.snoopFanout::overflows                0      0.00%    100.00% # Request fanout histogram (Count)
system.membus.snoopFanout::min_value                0                       # Request fanout histogram (Count)
system.membus.snoopFanout::max_value                0                       # Request fanout histogram (Count)
system.membus.snoopFanout::total              8299512                       # Request fanout histogram (Count)
system.membus.power_state.pwrStateResidencyTicks::UNDEFINED 206560485000                       # Cumulative time (in ticks) in various power states (Tick)
system.membus.reqLayer0.occupancy         51911148500                       # Layer occupancy (ticks) (Tick)
system.membus.reqLayer0.utilization               0.3                       # Layer utilization (Ratio)
system.membus.respLayer1.occupancy          254046750                       # Layer occupancy (ticks) (Tick)
system.membus.respLayer1.utilization              0.0                       # Layer utilization (Ratio)
system.membus.snoop_filter.totRequests       16566256                       # Total number of requests made to the snoop filter. (Count)
system.membus.snoop_filter.hitSingleRequests      8266744                       # Number of requests hitting in the snoop filter with a single holder of the requested data. (Count)
system.membus.snoop_filter.hitMultiRequests            0                       # Number of requests hitting in the snoop filter with multiple (>1) holders of the requested data. (Count)
system.membus.snoop_filter.totSnoops                0                       # Total number of snoops made to the snoop filter. (Count)
system.membus.snoop_filter.hitSingleSnoops            0                       # Number of snoops hitting in the snoop filter with a single holder of the requested data. (Count)
system.membus.snoop_filter.hitMultiSnoops            0                       # Number of snoops hitting in the snoop filter with multiple (>1) holders of the requested data. (Count)
system.tol2bus.transDist::ReadResp            3036443                       # Transaction distribution (Count)
system.tol2bus.transDist::WritebackDirty     16577508                       # Transaction distribution (Count)
system.tol2bus.transDist::WritebackClean      3004899                       # Transaction distribution (Count)
system.tol2bus.transDist::CleanEvict            18715                       # Transaction distribution (Count)
system.tol2bus.transDist::ReadExReq             47096                       # Transaction distribution (Count)
system.tol2bus.transDist::ReadExResp            47096                       # Transaction distribution (Count)
system.tol2bus.transDist::ReadCleanReq        3004963                       # Transaction distribution (Count)
system.tol2bus.transDist::ReadSharedReq         31480                       # Transaction distribution (Count)
system.tol2bus.transDist::InvalidateReq       8251708                       # Transaction distribution (Count)
system.tol2bus.transDist::InvalidateResp      8251708                       # Transaction distribution (Count)
system.tol2bus.pktCount_system.cpu.icache.mem_side_port::system.l2.cpu_side_port      9014825                       # Packet count per connected requestor and responder (Count)
system.tol2bus.pktCount_system.cpu.dcache.mem_side_port::system.l2.cpu_side_port     24989828                       # Packet count per connected requestor and responder (Count)
system.tol2bus.pktCount::total               34004653                       # Packet count per connected requestor and responder (Count)
system.tol2bus.pktSize_system.cpu.icache.mem_side_port::system.l2.cpu_side_port    384631168                       # Cumulative packet size per connected requestor and responder (Byte)
system.tol2bus.pktSize_system.cpu.dcache.mem_side_port::system.l2.cpu_side_port    537029184                       # Cumulative packet size per connected requestor and responder (Byte)
system.tol2bus.pktSize::total               921660352                       # Cumulative packet size per connected requestor and responder (Byte)
system.tol2bus.snoops                         8266963                       # Total snoops (Count)
system.tol2bus.snoopTraffic                 528960192                       # Total snoop traffic (Byte)
system.tol2bus.snoopFanout::samples          19602210                       # Request fanout histogram (Count)
system.tol2bus.snoopFanout::mean             0.000011                       # Request fanout histogram (Count)
system.tol2bus.snoopFanout::stdev            0.003380                       # Request fanout histogram (Count)
system.tol2bus.snoopFanout::underflows              0      0.00%      0.00% # Request fanout histogram (Count)
system.tol2bus.snoopFanout::0                19601986    100.00%    100.00% # Request fanout histogram (Count)
system.tol2bus.snoopFanout::1                     224      0.00%    100.00% # Request fanout histogram (Count)
system.tol2bus.snoopFanout::2                       0      0.00%    100.00% # Request fanout histogram (Count)
system.tol2bus.snoopFanout::overflows               0      0.00%    100.00% # Request fanout histogram (Count)
system.tol2bus.snoopFanout::min_value               0                       # Request fanout histogram (Count)
system.tol2bus.snoopFanout::max_value               1                       # Request fanout histogram (Count)
system.tol2bus.snoopFanout::total            19602210                       # Request fanout histogram (Count)
system.tol2bus.power_state.pwrStateResidencyTicks::UNDEFINED 206560485000                       # Cumulative time (in ticks) in various power states (Tick)
system.tol2bus.reqLayer0.occupancy        22652107000                       # Layer occupancy (ticks) (Tick)
system.tol2bus.reqLayer0.utilization              0.1                       # Layer utilization (Ratio)
system.tol2bus.respLayer0.occupancy        4507445997                       # Layer occupancy (ticks) (Tick)
system.tol2bus.respLayer0.utilization             0.0                       # Layer utilization (Ratio)
system.tol2bus.respLayer1.occupancy        4243725984                       # Layer occupancy (ticks) (Tick)
system.tol2bus.respLayer1.utilization             0.0                       # Layer utilization (Ratio)
system.tol2bus.snoop_filter.totRequests      22669406                       # Total number of requests made to the snoop filter. (Count)
system.tol2bus.snoop_filter.hitSingleRequests     11334159                       # Number of requests hitting in the snoop filter with a single holder of the requested data. (Count)
system.tol2bus.snoop_filter.hitMultiRequests            3                       # Number of requests hitting in the snoop filter with multiple (>1) holders of the requested data. (Count)
system.tol2bus.snoop_filter.totSnoops             221                       # Total number of snoops made to the snoop filter. (Count)
system.tol2bus.snoop_filter.hitSingleSnoops          221                       # Number of snoops hitting in the snoop filter with a single holder of the requested data. (Count)
system.tol2bus.snoop_filter.hitMultiSnoops            0                       # Number of snoops hitting in the snoop filter with multiple (>1) holders of the requested data. (Count)
system.voltage_domain.voltage                       1                       # Voltage in Volts (Volt)
system.workload.inst.arm                            0                       # number of arm instructions executed (Count)
system.workload.inst.quiesce                        0                       # number of quiesce instructions executed (Count)
system.cpu.idleCycles                       228011927                       # Total number of cycles that the object has spent stopped (Unspecified)
system.cpu.tickCycles                       185109043                       # Number of cycles that the object actually ticked (Unspecified)

---------- End Simulation Statistics   ----------
