
---------- Begin Simulation Statistics ----------
simSeconds                                   0.120900                       # Number of seconds simulated (Second)
simTicks                                 120900416500                       # Number of ticks simulated (Tick)
finalTick                                120900416500                       # Number of ticks from beginning of simulation (restored from checkpoints and never reset) (Tick)
simFreq                                  1000000000000                       # The number of ticks per simulated second ((Tick/Second))
hostSeconds                                    204.69                       # Real time elapsed on the host (Second)
hostTickRate                                590642488                       # The number of ticks simulated per host second (ticks/s) ((Tick/Second))
hostMemory                                     687816                       # Number of bytes of host memory used (Byte)
simInsts                                    100000000                       # Number of instructions simulated (Count)
simOps                                      100001797                       # Number of ops (including micro ops) simulated (Count)
hostInstRate                                   488536                       # Simulator instruction rate (inst/s) ((Count/Second))
hostOpRate                                     488545                       # Simulator op (including micro ops) rate (op/s) ((Count/Second))
system.clk_domain.clock                          1000                       # Clock period in ticks (Tick)
system.cpu.numCycles                        241800833                       # Number of cpu cycles simulated (Cycle)
system.cpu.numWorkItemsStarted                      0                       # Number of work items this cpu started (Count)
system.cpu.numWorkItemsCompleted                    0                       # Number of work items this cpu completed (Count)
system.cpu.numInsts                         100000000                       # Number of instructions committed (Count)
system.cpu.numOps                           100001797                       # Number of ops (including micro ops) committed (Count)
system.cpu.numDiscardedOps                      23001                       # Number of ops (including micro ops) which were discarded before commit (Count)
system.cpu.numFetchSuspends                         0                       # Number of times Execute suspended instruction fetching (Count)
system.cpu.cpi                               2.418008                       # CPI: cycles per instruction ((Cycle/Count))
system.cpu.ipc                               0.413564                       # IPC: instructions per cycle ((Count/Cycle))
system.cpu.committedInstType_0::No_OpClass           27      0.00%      0.00% # Class of committed instruction (Count)
system.cpu.committedInstType_0::IntAlu       55071421     55.07%     55.07% # Class of committed instruction (Count)
system.cpu.committedInstType_0::IntMult            39      0.00%     55.07% # Class of committed instruction (Count)
system.cpu.committedInstType_0::IntDiv              4      0.00%     55.07% # Class of committed instruction (Count)
system.cpu.committedInstType_0::FloatAdd            0      0.00%     55.07% # Class of committed instruction (Count)
system.cpu.committedInstType_0::FloatCmp            2      0.00%     55.07% # Class of committed instruction (Count)
system.cpu.committedInstType_0::FloatCvt            0      0.00%     55.07% # Class of committed instruction (Count)
system.cpu.committedInstType_0::FloatMult            0      0.00%     55.07% # Class of committed instruction (Count)
system.cpu.committedInstType_0::FloatMultAcc            0      0.00%     55.07% # Class of committed instruction (Count)
system.cpu.committedInstType_0::FloatDiv            0      0.00%     55.07% # Class of committed instruction (Count)
system.cpu.committedInstType_0::FloatMisc       534631      0.53%     55.61% # Class of committed instruction (Count)
system.cpu.committedInstType_0::FloatSqrt            0      0.00%     55.61% # Class of committed instruction (Count)
system.cpu.committedInstType_0::SimdAdd            19      0.00%     55.61% # Class of committed instruction (Count)
system.cpu.committedInstType_0::SimdAddAcc            0      0.00%     55.61% # Class of committed instruction (Count)
system.cpu.committedInstType_0::SimdAlu            24      0.00%     55.61% # Class of committed instruction (Count)
system.cpu.committedInstType_0::SimdCmp            70      0.00%     55.61% # Class of committed instruction (Count)
system.cpu.committedInstType_0::SimdCvt             0      0.00%     55.61% # Class of committed instruction (Count)
system.cpu.committedInstType_0::SimdMisc           25      0.00%     55.61% # Class of committed instruction (Count)
system.cpu.committedInstType_0::SimdMult            0      0.00%     55.61% # Class of committed instruction (Count)
system.cpu.committedInstType_0::SimdMultAcc            0      0.00%     55.61% # Class of committed instruction (Count)
system.cpu.committedInstType_0::SimdShift            0      0.00%     55.61% # Class of committed instruction (Count)
system.cpu.committedInstType_0::SimdShiftAcc            0      0.00%     55.61% # Class of committed instruction (Count)
system.cpu.committedInstType_0::SimdDiv             0      0.00%     55.61% # Class of committed instruction (Count)
system.cpu.committedInstType_0::SimdSqrt            0      0.00%     55.61% # Class of committed instruction (Count)
system.cpu.committedInstType_0::SimdFloatAdd            0      0.00%     55.61% # Class of committed instruction (Count)
system.cpu.committedInstType_0::SimdFloatAlu            0      0.00%     55.61% # Class of committed instruction (Count)
system.cpu.committedInstType_0::SimdFloatCmp            0      0.00%     55.61% # Class of committed instruction (Count)
system.cpu.committedInstType_0::SimdFloatCvt            0      0.00%     55.61% # Class of committed instruction (Count)
system.cpu.committedInstType_0::SimdFloatDiv            0      0.00%     55.61% # Class of committed instruction (Count)
system.cpu.committedInstType_0::SimdFloatMisc            0      0.00%     55.61% # Class of committed instruction (Count)
system.cpu.committedInstType_0::SimdFloatMult            0      0.00%     55.61% # Class of committed instruction (Count)
system.cpu.committedInstType_0::SimdFloatMultAcc            0      0.00%     55.61% # Class of committed instruction (Count)
system.cpu.committedInstType_0::SimdFloatSqrt            0      0.00%     55.61% # Class of committed instruction (Count)
system.cpu.committedInstType_0::SimdReduceAdd            0      0.00%     55.61% # Class of committed instruction (Count)
system.cpu.committedInstType_0::SimdReduceAlu            0      0.00%     55.61% # Class of committed instruction (Count)
system.cpu.committedInstType_0::SimdReduceCmp            0      0.00%     55.61% # Class of committed instruction (Count)
system.cpu.committedInstType_0::SimdFloatReduceAdd            0      0.00%     55.61% # Class of committed instruction (Count)
system.cpu.committedInstType_0::SimdFloatReduceCmp            0      0.00%     55.61% # Class of committed instruction (Count)
system.cpu.committedInstType_0::SimdAes             0      0.00%     55.61% # Class of committed instruction (Count)
system.cpu.committedInstType_0::SimdAesMix            0      0.00%     55.61% # Class of committed instruction (Count)
system.cpu.committedInstType_0::SimdSha1Hash            0      0.00%     55.61% # Class of committed instruction (Count)
system.cpu.committedInstType_0::SimdSha1Hash2            0      0.00%     55.61% # Class of committed instruction (Count)
system.cpu.committedInstType_0::SimdSha256Hash            0      0.00%     55.61% # Class of committed instruction (Count)
system.cpu.committedInstType_0::SimdSha256Hash2            0      0.00%     55.61% # Class of committed instruction (Count)
system.cpu.committedInstType_0::SimdShaSigma2            0      0.00%     55.61% # Class of committed instruction (Count)
system.cpu.committedInstType_0::SimdShaSigma3            0      0.00%     55.61% # Class of committed instruction (Count)
system.cpu.committedInstType_0::SimdPredAlu            0      0.00%     55.61% # Class of committed instruction (Count)
system.cpu.committedInstType_0::MemRead      32611791     32.61%     88.22% # Class of committed instruction (Count)
system.cpu.committedInstType_0::MemWrite     11783744     11.78%    100.00% # Class of committed instruction (Count)
system.cpu.committedInstType_0::FloatMemRead            0      0.00%    100.00% # Class of committed instruction (Count)
system.cpu.committedInstType_0::FloatMemWrite            0      0.00%    100.00% # Class of committed instruction (Count)
system.cpu.committedInstType_0::IprAccess            0      0.00%    100.00% # Class of committed instruction (Count)
system.cpu.committedInstType_0::InstPrefetch            0      0.00%    100.00% # Class of committed instruction (Count)
system.cpu.committedInstType_0::total       100001797                       # Class of committed instruction (Count)
system.cpu.branchPred.lookups                  542932                       # Number of BP lookups (Count)
system.cpu.branchPred.condPredicted            541554                       # Number of conditional branches predicted (Count)
system.cpu.branchPred.condIncorrect               678                       # Number of conditional branches incorrect (Count)
system.cpu.branchPred.BTBLookups               540709                       # Number of BTB lookups (Count)
system.cpu.branchPred.BTBHits                  539351                       # Number of BTB hits (Count)
system.cpu.branchPred.BTBHitRatio            0.997488                       # BTB Hit Ratio (Ratio)
system.cpu.branchPred.RASUsed                     389                       # Number of times the RAS was used to get a target. (Count)
system.cpu.branchPred.RASIncorrect                 19                       # Number of incorrect RAS predictions. (Count)
system.cpu.branchPred.indirectLookups             146                       # Number of indirect predictor lookups. (Count)
system.cpu.branchPred.indirectHits                 30                       # Number of indirect target hits. (Count)
system.cpu.branchPred.indirectMisses              116                       # Number of indirect misses. (Count)
system.cpu.branchPred.indirectMispredicted           56                       # Number of mispredicted indirect branches. (Count)
system.cpu.dcache.demandHits::cpu.data       41969040                       # number of demand (read+write) hits (Count)
system.cpu.dcache.demandHits::total          41969040                       # number of demand (read+write) hits (Count)
system.cpu.dcache.overallHits::cpu.data      41969040                       # number of overall hits (Count)
system.cpu.dcache.overallHits::total         41969040                       # number of overall hits (Count)
system.cpu.dcache.demandMisses::cpu.data      1336707                       # number of demand (read+write) misses (Count)
system.cpu.dcache.demandMisses::total         1336707                       # number of demand (read+write) misses (Count)
system.cpu.dcache.overallMisses::cpu.data      1336707                       # number of overall misses (Count)
system.cpu.dcache.overallMisses::total        1336707                       # number of overall misses (Count)
system.cpu.dcache.demandMissLatency::cpu.data 126223177500                       # number of demand (read+write) miss ticks (Tick)
system.cpu.dcache.demandMissLatency::total 126223177500                       # number of demand (read+write) miss ticks (Tick)
system.cpu.dcache.overallMissLatency::cpu.data 126223177500                       # number of overall miss ticks (Tick)
system.cpu.dcache.overallMissLatency::total 126223177500                       # number of overall miss ticks (Tick)
system.cpu.dcache.demandAccesses::cpu.data     43305747                       # number of demand (read+write) accesses (Count)
system.cpu.dcache.demandAccesses::total      43305747                       # number of demand (read+write) accesses (Count)
system.cpu.dcache.overallAccesses::cpu.data     43305747                       # number of overall (read+write) accesses (Count)
system.cpu.dcache.overallAccesses::total     43305747                       # number of overall (read+write) accesses (Count)
system.cpu.dcache.demandMissRate::cpu.data     0.030867                       # miss rate for demand accesses (Ratio)
system.cpu.dcache.demandMissRate::total      0.030867                       # miss rate for demand accesses (Ratio)
system.cpu.dcache.overallMissRate::cpu.data     0.030867                       # miss rate for overall accesses (Ratio)
system.cpu.dcache.overallMissRate::total     0.030867                       # miss rate for overall accesses (Ratio)
system.cpu.dcache.demandAvgMissLatency::cpu.data 94428.455525                       # average overall miss latency in ticks ((Tick/Count))
system.cpu.dcache.demandAvgMissLatency::total 94428.455525                       # average overall miss latency in ticks ((Tick/Count))
system.cpu.dcache.overallAvgMissLatency::cpu.data 94428.455525                       # average overall miss latency ((Tick/Count))
system.cpu.dcache.overallAvgMissLatency::total 94428.455525                       # average overall miss latency ((Tick/Count))
system.cpu.dcache.blockedCycles::no_mshrs            0                       # number of cycles access was blocked (Cycle)
system.cpu.dcache.blockedCycles::no_targets            0                       # number of cycles access was blocked (Cycle)
system.cpu.dcache.blockedCauses::no_mshrs            0                       # number of times access was blocked (Count)
system.cpu.dcache.blockedCauses::no_targets            0                       # number of times access was blocked (Count)
system.cpu.dcache.avgBlocked::no_mshrs            nan                       # average number of cycles each access was blocked ((Cycle/Count))
system.cpu.dcache.avgBlocked::no_targets          nan                       # average number of cycles each access was blocked ((Cycle/Count))
system.cpu.dcache.writebacks::writebacks       667821                       # number of writebacks (Count)
system.cpu.dcache.writebacks::total            667821                       # number of writebacks (Count)
system.cpu.dcache.demandMshrHits::cpu.data       668301                       # number of demand (read+write) MSHR hits (Count)
system.cpu.dcache.demandMshrHits::total        668301                       # number of demand (read+write) MSHR hits (Count)
system.cpu.dcache.overallMshrHits::cpu.data       668301                       # number of overall MSHR hits (Count)
system.cpu.dcache.overallMshrHits::total       668301                       # number of overall MSHR hits (Count)
system.cpu.dcache.demandMshrMisses::cpu.data       668406                       # number of demand (read+write) MSHR misses (Count)
system.cpu.dcache.demandMshrMisses::total       668406                       # number of demand (read+write) MSHR misses (Count)
system.cpu.dcache.overallMshrMisses::cpu.data       668406                       # number of overall MSHR misses (Count)
system.cpu.dcache.overallMshrMisses::total       668406                       # number of overall MSHR misses (Count)
system.cpu.dcache.demandMshrMissLatency::cpu.data  63653885500                       # number of demand (read+write) MSHR miss ticks (Tick)
system.cpu.dcache.demandMshrMissLatency::total  63653885500                       # number of demand (read+write) MSHR miss ticks (Tick)
system.cpu.dcache.overallMshrMissLatency::cpu.data  63653885500                       # number of overall MSHR miss ticks (Tick)
system.cpu.dcache.overallMshrMissLatency::total  63653885500                       # number of overall MSHR miss ticks (Tick)
system.cpu.dcache.demandMshrMissRate::cpu.data     0.015435                       # mshr miss ratio for demand accesses (Ratio)
system.cpu.dcache.demandMshrMissRate::total     0.015435                       # mshr miss ratio for demand accesses (Ratio)
system.cpu.dcache.overallMshrMissRate::cpu.data     0.015435                       # mshr miss ratio for overall accesses (Ratio)
system.cpu.dcache.overallMshrMissRate::total     0.015435                       # mshr miss ratio for overall accesses (Ratio)
system.cpu.dcache.demandAvgMshrMissLatency::cpu.data 95232.367004                       # average overall mshr miss latency ((Tick/Count))
system.cpu.dcache.demandAvgMshrMissLatency::total 95232.367004                       # average overall mshr miss latency ((Tick/Count))
system.cpu.dcache.overallAvgMshrMissLatency::cpu.data 95232.367004                       # average overall mshr miss latency ((Tick/Count))
system.cpu.dcache.overallAvgMshrMissLatency::total 95232.367004                       # average overall mshr miss latency ((Tick/Count))
system.cpu.dcache.replacements                 667895                       # number of replacements (Count)
system.cpu.dcache.LoadLockedReq.hits::cpu.data            3                       # number of LoadLockedReq hits (Count)
system.cpu.dcache.LoadLockedReq.hits::total            3                       # number of LoadLockedReq hits (Count)
system.cpu.dcache.LoadLockedReq.misses::cpu.data            1                       # number of LoadLockedReq misses (Count)
system.cpu.dcache.LoadLockedReq.misses::total            1                       # number of LoadLockedReq misses (Count)
system.cpu.dcache.LoadLockedReq.missLatency::cpu.data       105000                       # number of LoadLockedReq miss ticks (Tick)
system.cpu.dcache.LoadLockedReq.missLatency::total       105000                       # number of LoadLockedReq miss ticks (Tick)
system.cpu.dcache.LoadLockedReq.accesses::cpu.data            4                       # number of LoadLockedReq accesses(hits+misses) (Count)
system.cpu.dcache.LoadLockedReq.accesses::total            4                       # number of LoadLockedReq accesses(hits+misses) (Count)
system.cpu.dcache.LoadLockedReq.missRate::cpu.data     0.250000                       # miss rate for LoadLockedReq accesses (Ratio)
system.cpu.dcache.LoadLockedReq.missRate::total     0.250000                       # miss rate for LoadLockedReq accesses (Ratio)
system.cpu.dcache.LoadLockedReq.avgMissLatency::cpu.data       105000                       # average LoadLockedReq miss latency ((Tick/Count))
system.cpu.dcache.LoadLockedReq.avgMissLatency::total       105000                       # average LoadLockedReq miss latency ((Tick/Count))
system.cpu.dcache.LoadLockedReq.mshrMisses::cpu.data            1                       # number of LoadLockedReq MSHR misses (Count)
system.cpu.dcache.LoadLockedReq.mshrMisses::total            1                       # number of LoadLockedReq MSHR misses (Count)
system.cpu.dcache.LoadLockedReq.mshrMissLatency::cpu.data       104000                       # number of LoadLockedReq MSHR miss ticks (Tick)
system.cpu.dcache.LoadLockedReq.mshrMissLatency::total       104000                       # number of LoadLockedReq MSHR miss ticks (Tick)
system.cpu.dcache.LoadLockedReq.mshrMissRate::cpu.data     0.250000                       # mshr miss rate for LoadLockedReq accesses (Ratio)
system.cpu.dcache.LoadLockedReq.mshrMissRate::total     0.250000                       # mshr miss rate for LoadLockedReq accesses (Ratio)
system.cpu.dcache.LoadLockedReq.avgMshrMissLatency::cpu.data       104000                       # average LoadLockedReq mshr miss latency ((Tick/Count))
system.cpu.dcache.LoadLockedReq.avgMshrMissLatency::total       104000                       # average LoadLockedReq mshr miss latency ((Tick/Count))
system.cpu.dcache.ReadReq.hits::cpu.data     31542808                       # number of ReadReq hits (Count)
system.cpu.dcache.ReadReq.hits::total        31542808                       # number of ReadReq hits (Count)
system.cpu.dcache.ReadReq.misses::cpu.data           95                       # number of ReadReq misses (Count)
system.cpu.dcache.ReadReq.misses::total            95                       # number of ReadReq misses (Count)
system.cpu.dcache.ReadReq.missLatency::cpu.data      8103500                       # number of ReadReq miss ticks (Tick)
system.cpu.dcache.ReadReq.missLatency::total      8103500                       # number of ReadReq miss ticks (Tick)
system.cpu.dcache.ReadReq.accesses::cpu.data     31542903                       # number of ReadReq accesses(hits+misses) (Count)
system.cpu.dcache.ReadReq.accesses::total     31542903                       # number of ReadReq accesses(hits+misses) (Count)
system.cpu.dcache.ReadReq.missRate::cpu.data     0.000003                       # miss rate for ReadReq accesses (Ratio)
system.cpu.dcache.ReadReq.missRate::total     0.000003                       # miss rate for ReadReq accesses (Ratio)
system.cpu.dcache.ReadReq.avgMissLatency::cpu.data        85300                       # average ReadReq miss latency ((Tick/Count))
system.cpu.dcache.ReadReq.avgMissLatency::total        85300                       # average ReadReq miss latency ((Tick/Count))
system.cpu.dcache.ReadReq.mshrHits::cpu.data            7                       # number of ReadReq MSHR hits (Count)
system.cpu.dcache.ReadReq.mshrHits::total            7                       # number of ReadReq MSHR hits (Count)
system.cpu.dcache.ReadReq.mshrMisses::cpu.data           88                       # number of ReadReq MSHR misses (Count)
system.cpu.dcache.ReadReq.mshrMisses::total           88                       # number of ReadReq MSHR misses (Count)
system.cpu.dcache.ReadReq.mshrMissLatency::cpu.data      7519500                       # number of ReadReq MSHR miss ticks (Tick)
system.cpu.dcache.ReadReq.mshrMissLatency::total      7519500                       # number of ReadReq MSHR miss ticks (Tick)
system.cpu.dcache.ReadReq.mshrMissRate::cpu.data     0.000003                       # mshr miss rate for ReadReq accesses (Ratio)
system.cpu.dcache.ReadReq.mshrMissRate::total     0.000003                       # mshr miss rate for ReadReq accesses (Ratio)
system.cpu.dcache.ReadReq.avgMshrMissLatency::cpu.data 85448.863636                       # average ReadReq mshr miss latency ((Tick/Count))
system.cpu.dcache.ReadReq.avgMshrMissLatency::total 85448.863636                       # average ReadReq mshr miss latency ((Tick/Count))
system.cpu.dcache.StoreCondReq.hits::cpu.data            4                       # number of StoreCondReq hits (Count)
system.cpu.dcache.StoreCondReq.hits::total            4                       # number of StoreCondReq hits (Count)
system.cpu.dcache.StoreCondReq.accesses::cpu.data            4                       # number of StoreCondReq accesses(hits+misses) (Count)
system.cpu.dcache.StoreCondReq.accesses::total            4                       # number of StoreCondReq accesses(hits+misses) (Count)
system.cpu.dcache.SwapReq.hits::cpu.data           10                       # number of SwapReq hits (Count)
system.cpu.dcache.SwapReq.hits::total              10                       # number of SwapReq hits (Count)
system.cpu.dcache.SwapReq.accesses::cpu.data           10                       # number of SwapReq accesses(hits+misses) (Count)
system.cpu.dcache.SwapReq.accesses::total           10                       # number of SwapReq accesses(hits+misses) (Count)
system.cpu.dcache.WriteReq.hits::cpu.data     10426232                       # number of WriteReq hits (Count)
system.cpu.dcache.WriteReq.hits::total       10426232                       # number of WriteReq hits (Count)
system.cpu.dcache.WriteReq.misses::cpu.data      1336612                       # number of WriteReq misses (Count)
system.cpu.dcache.WriteReq.misses::total      1336612                       # number of WriteReq misses (Count)
system.cpu.dcache.WriteReq.missLatency::cpu.data 126215074000                       # number of WriteReq miss ticks (Tick)
system.cpu.dcache.WriteReq.missLatency::total 126215074000                       # number of WriteReq miss ticks (Tick)
system.cpu.dcache.WriteReq.accesses::cpu.data     11762844                       # number of WriteReq accesses(hits+misses) (Count)
system.cpu.dcache.WriteReq.accesses::total     11762844                       # number of WriteReq accesses(hits+misses) (Count)
system.cpu.dcache.WriteReq.missRate::cpu.data     0.113630                       # miss rate for WriteReq accesses (Ratio)
system.cpu.dcache.WriteReq.missRate::total     0.113630                       # miss rate for WriteReq accesses (Ratio)
system.cpu.dcache.WriteReq.avgMissLatency::cpu.data 94429.104332                       # average WriteReq miss latency ((Tick/Count))
system.cpu.dcache.WriteReq.avgMissLatency::total 94429.104332                       # average WriteReq miss latency ((Tick/Count))
system.cpu.dcache.WriteReq.mshrHits::cpu.data       668294                       # number of WriteReq MSHR hits (Count)
system.cpu.dcache.WriteReq.mshrHits::total       668294                       # number of WriteReq MSHR hits (Count)
system.cpu.dcache.WriteReq.mshrMisses::cpu.data       668318                       # number of WriteReq MSHR misses (Count)
system.cpu.dcache.WriteReq.mshrMisses::total       668318                       # number of WriteReq MSHR misses (Count)
system.cpu.dcache.WriteReq.mshrMissLatency::cpu.data  63646366000                       # number of WriteReq MSHR miss ticks (Tick)
system.cpu.dcache.WriteReq.mshrMissLatency::total  63646366000                       # number of WriteReq MSHR miss ticks (Tick)
system.cpu.dcache.WriteReq.mshrMissRate::cpu.data     0.056816                       # mshr miss rate for WriteReq accesses (Ratio)
system.cpu.dcache.WriteReq.mshrMissRate::total     0.056816                       # mshr miss rate for WriteReq accesses (Ratio)
system.cpu.dcache.WriteReq.avgMshrMissLatency::cpu.data 95233.655236                       # average WriteReq mshr miss latency ((Tick/Count))
system.cpu.dcache.WriteReq.avgMshrMissLatency::total 95233.655236                       # average WriteReq mshr miss latency ((Tick/Count))
system.cpu.dcache.power_state.pwrStateResidencyTicks::UNDEFINED 120900416500                       # Cumulative time (in ticks) in various power states (Tick)
system.cpu.dcache.tags.tagsInUse           511.712509                       # Average ticks per tags in use ((Tick/Count))
system.cpu.dcache.tags.totalRefs             42637464                       # Total number of references to valid blocks. (Count)
system.cpu.dcache.tags.sampledRefs             668407                       # Sample count of references to valid blocks. (Count)
system.cpu.dcache.tags.avgRefs              63.789673                       # Average number of references to valid blocks. ((Count/Count))
system.cpu.dcache.tags.warmupTick              187500                       # The tick when the warmup percentage was hit. (Tick)
system.cpu.dcache.tags.occupancies::cpu.data   511.712509                       # Average occupied blocks per tick, per requestor ((Count/Tick))
system.cpu.dcache.tags.avgOccs::cpu.data     0.999438                       # Average percentage of cache occupancy ((Ratio/Tick))
system.cpu.dcache.tags.avgOccs::total        0.999438                       # Average percentage of cache occupancy ((Ratio/Tick))
system.cpu.dcache.tags.occupanciesTaskId::1024          512                       # Occupied blocks per task id (Count)
system.cpu.dcache.tags.ageTaskId_1024::0           56                       # Occupied blocks per task id, per block age (Count)
system.cpu.dcache.tags.ageTaskId_1024::1          454                       # Occupied blocks per task id, per block age (Count)
system.cpu.dcache.tags.ageTaskId_1024::4            2                       # Occupied blocks per task id, per block age (Count)
system.cpu.dcache.tags.ratioOccsTaskId::1024            1                       # Ratio of occupied blocks and all blocks, per task id (Ratio)
system.cpu.dcache.tags.tagAccesses           87279937                       # Number of tag accesses (Count)
system.cpu.dcache.tags.dataAccesses          87279937                       # Number of data accesses (Count)
system.cpu.dcache.tags.power_state.pwrStateResidencyTicks::UNDEFINED 120900416500                       # Cumulative time (in ticks) in various power states (Tick)
system.cpu.fetch2.intInstructions            54799097                       # Number of integer instructions successfully decoded (Count)
system.cpu.fetch2.fpInstructions                    0                       # Number of floating point instructions successfully decoded (Count)
system.cpu.fetch2.vecInstructions              534821                       # Number of SIMD instructions successfully decoded (Count)
system.cpu.fetch2.loadInstructions           32758897                       # Number of memory load instructions successfully decoded (Count)
system.cpu.fetch2.storeInstructions          11829046                       # Number of memory store instructions successfully decoded (Count)
system.cpu.fetch2.amoInstructions                  14                       # Number of memory atomic instructions successfully decoded (Count)
system.cpu.icache.demandHits::cpu.inst        4890073                       # number of demand (read+write) hits (Count)
system.cpu.icache.demandHits::total           4890073                       # number of demand (read+write) hits (Count)
system.cpu.icache.overallHits::cpu.inst       4890073                       # number of overall hits (Count)
system.cpu.icache.overallHits::total          4890073                       # number of overall hits (Count)
system.cpu.icache.demandMisses::cpu.inst          471                       # number of demand (read+write) misses (Count)
system.cpu.icache.demandMisses::total             471                       # number of demand (read+write) misses (Count)
system.cpu.icache.overallMisses::cpu.inst          471                       # number of overall misses (Count)
system.cpu.icache.overallMisses::total            471                       # number of overall misses (Count)
system.cpu.icache.demandMissLatency::cpu.inst     36508500                       # number of demand (read+write) miss ticks (Tick)
system.cpu.icache.demandMissLatency::total     36508500                       # number of demand (read+write) miss ticks (Tick)
system.cpu.icache.overallMissLatency::cpu.inst     36508500                       # number of overall miss ticks (Tick)
system.cpu.icache.overallMissLatency::total     36508500                       # number of overall miss ticks (Tick)
system.cpu.icache.demandAccesses::cpu.inst      4890544                       # number of demand (read+write) accesses (Count)
system.cpu.icache.demandAccesses::total       4890544                       # number of demand (read+write) accesses (Count)
system.cpu.icache.overallAccesses::cpu.inst      4890544                       # number of overall (read+write) accesses (Count)
system.cpu.icache.overallAccesses::total      4890544                       # number of overall (read+write) accesses (Count)
system.cpu.icache.demandMissRate::cpu.inst     0.000096                       # miss rate for demand accesses (Ratio)
system.cpu.icache.demandMissRate::total      0.000096                       # miss rate for demand accesses (Ratio)
system.cpu.icache.overallMissRate::cpu.inst     0.000096                       # miss rate for overall accesses (Ratio)
system.cpu.icache.overallMissRate::total     0.000096                       # miss rate for overall accesses (Ratio)
system.cpu.icache.demandAvgMissLatency::cpu.inst 77512.738854                       # average overall miss latency in ticks ((Tick/Count))
system.cpu.icache.demandAvgMissLatency::total 77512.738854                       # average overall miss latency in ticks ((Tick/Count))
system.cpu.icache.overallAvgMissLatency::cpu.inst 77512.738854                       # average overall miss latency ((Tick/Count))
system.cpu.icache.overallAvgMissLatency::total 77512.738854                       # average overall miss latency ((Tick/Count))
system.cpu.icache.blockedCycles::no_mshrs            0                       # number of cycles access was blocked (Cycle)
system.cpu.icache.blockedCycles::no_targets            0                       # number of cycles access was blocked (Cycle)
system.cpu.icache.blockedCauses::no_mshrs            0                       # number of times access was blocked (Count)
system.cpu.icache.blockedCauses::no_targets            0                       # number of times access was blocked (Count)
system.cpu.icache.avgBlocked::no_mshrs            nan                       # average number of cycles each access was blocked ((Cycle/Count))
system.cpu.icache.avgBlocked::no_targets          nan                       # average number of cycles each access was blocked ((Cycle/Count))
system.cpu.icache.writebacks::writebacks          223                       # number of writebacks (Count)
system.cpu.icache.writebacks::total               223                       # number of writebacks (Count)
system.cpu.icache.demandMshrMisses::cpu.inst          471                       # number of demand (read+write) MSHR misses (Count)
system.cpu.icache.demandMshrMisses::total          471                       # number of demand (read+write) MSHR misses (Count)
system.cpu.icache.overallMshrMisses::cpu.inst          471                       # number of overall MSHR misses (Count)
system.cpu.icache.overallMshrMisses::total          471                       # number of overall MSHR misses (Count)
system.cpu.icache.demandMshrMissLatency::cpu.inst     36037500                       # number of demand (read+write) MSHR miss ticks (Tick)
system.cpu.icache.demandMshrMissLatency::total     36037500                       # number of demand (read+write) MSHR miss ticks (Tick)
system.cpu.icache.overallMshrMissLatency::cpu.inst     36037500                       # number of overall MSHR miss ticks (Tick)
system.cpu.icache.overallMshrMissLatency::total     36037500                       # number of overall MSHR miss ticks (Tick)
system.cpu.icache.demandMshrMissRate::cpu.inst     0.000096                       # mshr miss ratio for demand accesses (Ratio)
system.cpu.icache.demandMshrMissRate::total     0.000096                       # mshr miss ratio for demand accesses (Ratio)
system.cpu.icache.overallMshrMissRate::cpu.inst     0.000096                       # mshr miss ratio for overall accesses (Ratio)
system.cpu.icache.overallMshrMissRate::total     0.000096                       # mshr miss ratio for overall accesses (Ratio)
system.cpu.icache.demandAvgMshrMissLatency::cpu.inst 76512.738854                       # average overall mshr miss latency ((Tick/Count))
system.cpu.icache.demandAvgMshrMissLatency::total 76512.738854                       # average overall mshr miss latency ((Tick/Count))
system.cpu.icache.overallAvgMshrMissLatency::cpu.inst 76512.738854                       # average overall mshr miss latency ((Tick/Count))
system.cpu.icache.overallAvgMshrMissLatency::total 76512.738854                       # average overall mshr miss latency ((Tick/Count))
system.cpu.icache.replacements                    223                       # number of replacements (Count)
system.cpu.icache.ReadReq.hits::cpu.inst      4890073                       # number of ReadReq hits (Count)
system.cpu.icache.ReadReq.hits::total         4890073                       # number of ReadReq hits (Count)
system.cpu.icache.ReadReq.misses::cpu.inst          471                       # number of ReadReq misses (Count)
system.cpu.icache.ReadReq.misses::total           471                       # number of ReadReq misses (Count)
system.cpu.icache.ReadReq.missLatency::cpu.inst     36508500                       # number of ReadReq miss ticks (Tick)
system.cpu.icache.ReadReq.missLatency::total     36508500                       # number of ReadReq miss ticks (Tick)
system.cpu.icache.ReadReq.accesses::cpu.inst      4890544                       # number of ReadReq accesses(hits+misses) (Count)
system.cpu.icache.ReadReq.accesses::total      4890544                       # number of ReadReq accesses(hits+misses) (Count)
system.cpu.icache.ReadReq.missRate::cpu.inst     0.000096                       # miss rate for ReadReq accesses (Ratio)
system.cpu.icache.ReadReq.missRate::total     0.000096                       # miss rate for ReadReq accesses (Ratio)
system.cpu.icache.ReadReq.avgMissLatency::cpu.inst 77512.738854                       # average ReadReq miss latency ((Tick/Count))
system.cpu.icache.ReadReq.avgMissLatency::total 77512.738854                       # average ReadReq miss latency ((Tick/Count))
system.cpu.icache.ReadReq.mshrMisses::cpu.inst          471                       # number of ReadReq MSHR misses (Count)
system.cpu.icache.ReadReq.mshrMisses::total          471                       # number of ReadReq MSHR misses (Count)
system.cpu.icache.ReadReq.mshrMissLatency::cpu.inst     36037500                       # number of ReadReq MSHR miss ticks (Tick)
system.cpu.icache.ReadReq.mshrMissLatency::total     36037500                       # number of ReadReq MSHR miss ticks (Tick)
system.cpu.icache.ReadReq.mshrMissRate::cpu.inst     0.000096                       # mshr miss rate for ReadReq accesses (Ratio)
system.cpu.icache.ReadReq.mshrMissRate::total     0.000096                       # mshr miss rate for ReadReq accesses (Ratio)
system.cpu.icache.ReadReq.avgMshrMissLatency::cpu.inst 76512.738854                       # average ReadReq mshr miss latency ((Tick/Count))
system.cpu.icache.ReadReq.avgMshrMissLatency::total 76512.738854                       # average ReadReq mshr miss latency ((Tick/Count))
system.cpu.icache.power_state.pwrStateResidencyTicks::UNDEFINED 120900416500                       # Cumulative time (in ticks) in various power states (Tick)
system.cpu.icache.tags.tagsInUse           247.962560                       # Average ticks per tags in use ((Tick/Count))
system.cpu.icache.tags.totalRefs              4890544                       # Total number of references to valid blocks. (Count)
system.cpu.icache.tags.sampledRefs                471                       # Sample count of references to valid blocks. (Count)
system.cpu.icache.tags.avgRefs           10383.320594                       # Average number of references to valid blocks. ((Count/Count))
system.cpu.icache.tags.warmupTick               92500                       # The tick when the warmup percentage was hit. (Tick)
system.cpu.icache.tags.occupancies::cpu.inst   247.962560                       # Average occupied blocks per tick, per requestor ((Count/Tick))
system.cpu.icache.tags.avgOccs::cpu.inst     0.968604                       # Average percentage of cache occupancy ((Ratio/Tick))
system.cpu.icache.tags.avgOccs::total        0.968604                       # Average percentage of cache occupancy ((Ratio/Tick))
system.cpu.icache.tags.occupanciesTaskId::1024          248                       # Occupied blocks per task id (Count)
system.cpu.icache.tags.ageTaskId_1024::4          248                       # Occupied blocks per task id, per block age (Count)
system.cpu.icache.tags.ratioOccsTaskId::1024     0.968750                       # Ratio of occupied blocks and all blocks, per task id (Ratio)
system.cpu.icache.tags.tagAccesses            9781559                       # Number of tag accesses (Count)
system.cpu.icache.tags.dataAccesses           9781559                       # Number of data accesses (Count)
system.cpu.icache.tags.power_state.pwrStateResidencyTicks::UNDEFINED 120900416500                       # Cumulative time (in ticks) in various power states (Tick)
system.cpu.mmu.alignFaults                          0                       # Number of MMU faults due to alignment restrictions (Count)
system.cpu.mmu.prefetchFaults                       0                       # Number of MMU faults due to prefetch (Count)
system.cpu.mmu.domainFaults                         0                       # Number of MMU faults due to domain restrictions (Count)
system.cpu.mmu.permsFaults                          0                       # Number of MMU faults due to permissions restrictions (Count)
system.cpu.mmu.dtb.readHits                         0                       # Read hits (Count)
system.cpu.mmu.dtb.readMisses                       0                       # Read misses (Count)
system.cpu.mmu.dtb.writeHits                        0                       # Write hits (Count)
system.cpu.mmu.dtb.writeMisses                      0                       # Write misses (Count)
system.cpu.mmu.dtb.inserts                          0                       # Number of times an entry is inserted into the TLB (Count)
system.cpu.mmu.dtb.flushTlb                         0                       # Number of times complete TLB was flushed (Count)
system.cpu.mmu.dtb.flushTlbMva                      0                       # Number of times TLB was flushed by MVA (Count)
system.cpu.mmu.dtb.flushTlbMvaAsid                  0                       # Number of times TLB was flushed by MVA & ASID (Count)
system.cpu.mmu.dtb.flushTlbAsid                     0                       # Number of times TLB was flushed by ASID (Count)
system.cpu.mmu.dtb.flushedEntries                   0                       # Number of entries that have been flushed from TLB (Count)
system.cpu.mmu.dtb.readAccesses                     0                       # Read accesses (Count)
system.cpu.mmu.dtb.writeAccesses                    0                       # Write accesses (Count)
system.cpu.mmu.dtb.hits                             0                       # Total TLB (inst and data) hits (Count)
system.cpu.mmu.dtb.misses                           0                       # Total TLB (inst and data) misses (Count)
system.cpu.mmu.dtb.accesses                         0                       # Total TLB (inst and data) accesses (Count)
system.cpu.mmu.dtb_walker.walks                     0                       # Table walker walks requested (Count)
system.cpu.mmu.dtb_walker.requestOrigin_Requested::Data            0                       # Table walker requests started/completed, data/inst (Count)
system.cpu.mmu.dtb_walker.requestOrigin_Requested::Inst            0                       # Table walker requests started/completed, data/inst (Count)
system.cpu.mmu.dtb_walker.requestOrigin_Requested::total            0                       # Table walker requests started/completed, data/inst (Count)
system.cpu.mmu.dtb_walker.requestOrigin_Completed::Data            0                       # Table walker requests started/completed, data/inst (Count)
system.cpu.mmu.dtb_walker.requestOrigin_Completed::Inst            0                       # Table walker requests started/completed, data/inst (Count)
system.cpu.mmu.dtb_walker.requestOrigin_Completed::total            0                       # Table walker requests started/completed, data/inst (Count)
system.cpu.mmu.dtb_walker.requestOrigin::total            0                       # Table walker requests started/completed, data/inst (Count)
system.cpu.mmu.dtb_walker.power_state.pwrStateResidencyTicks::UNDEFINED 120900416500                       # Cumulative time (in ticks) in various power states (Tick)
system.cpu.mmu.itb.instHits                         0                       # Inst hits (Count)
system.cpu.mmu.itb.instMisses                       0                       # Inst misses (Count)
system.cpu.mmu.itb.inserts                          0                       # Number of times an entry is inserted into the TLB (Count)
system.cpu.mmu.itb.flushTlb                         0                       # Number of times complete TLB was flushed (Count)
system.cpu.mmu.itb.flushTlbMva                      0                       # Number of times TLB was flushed by MVA (Count)
system.cpu.mmu.itb.flushTlbMvaAsid                  0                       # Number of times TLB was flushed by MVA & ASID (Count)
system.cpu.mmu.itb.flushTlbAsid                     0                       # Number of times TLB was flushed by ASID (Count)
system.cpu.mmu.itb.flushedEntries                   0                       # Number of entries that have been flushed from TLB (Count)
system.cpu.mmu.itb.instAccesses                     0                       # Inst accesses (Count)
system.cpu.mmu.itb.hits                             0                       # Total TLB (inst and data) hits (Count)
system.cpu.mmu.itb.misses                           0                       # Total TLB (inst and data) misses (Count)
system.cpu.mmu.itb.accesses                         0                       # Total TLB (inst and data) accesses (Count)
system.cpu.mmu.itb_walker.walks                     0                       # Table walker walks requested (Count)
system.cpu.mmu.itb_walker.requestOrigin_Requested::Data            0                       # Table walker requests started/completed, data/inst (Count)
system.cpu.mmu.itb_walker.requestOrigin_Requested::Inst            0                       # Table walker requests started/completed, data/inst (Count)
system.cpu.mmu.itb_walker.requestOrigin_Requested::total            0                       # Table walker requests started/completed, data/inst (Count)
system.cpu.mmu.itb_walker.requestOrigin_Completed::Data            0                       # Table walker requests started/completed, data/inst (Count)
system.cpu.mmu.itb_walker.requestOrigin_Completed::Inst            0                       # Table walker requests started/completed, data/inst (Count)
system.cpu.mmu.itb_walker.requestOrigin_Completed::total            0                       # Table walker requests started/completed, data/inst (Count)
system.cpu.mmu.itb_walker.requestOrigin::total            0                       # Table walker requests started/completed, data/inst (Count)
system.cpu.mmu.itb_walker.power_state.pwrStateResidencyTicks::UNDEFINED 120900416500                       # Cumulative time (in ticks) in various power states (Tick)
system.cpu.mmu.l2_shared.instHits                   0                       # Inst hits (Count)
system.cpu.mmu.l2_shared.instMisses                 0                       # Inst misses (Count)
system.cpu.mmu.l2_shared.inserts                    0                       # Number of times an entry is inserted into the TLB (Count)
system.cpu.mmu.l2_shared.flushTlb                   0                       # Number of times complete TLB was flushed (Count)
system.cpu.mmu.l2_shared.flushTlbMva                0                       # Number of times TLB was flushed by MVA (Count)
system.cpu.mmu.l2_shared.flushTlbMvaAsid            0                       # Number of times TLB was flushed by MVA & ASID (Count)
system.cpu.mmu.l2_shared.flushTlbAsid               0                       # Number of times TLB was flushed by ASID (Count)
system.cpu.mmu.l2_shared.flushedEntries             0                       # Number of entries that have been flushed from TLB (Count)
system.cpu.mmu.l2_shared.instAccesses               0                       # Inst accesses (Count)
system.cpu.mmu.l2_shared.hits                       0                       # Total TLB (inst and data) hits (Count)
system.cpu.mmu.l2_shared.misses                     0                       # Total TLB (inst and data) misses (Count)
system.cpu.mmu.l2_shared.accesses                   0                       # Total TLB (inst and data) accesses (Count)
system.cpu.mmu.stage2_dtb.readHits                  0                       # Read hits (Count)
system.cpu.mmu.stage2_dtb.readMisses                0                       # Read misses (Count)
system.cpu.mmu.stage2_dtb.writeHits                 0                       # Write hits (Count)
system.cpu.mmu.stage2_dtb.writeMisses               0                       # Write misses (Count)
system.cpu.mmu.stage2_dtb.inserts                   0                       # Number of times an entry is inserted into the TLB (Count)
system.cpu.mmu.stage2_dtb.flushTlb                  0                       # Number of times complete TLB was flushed (Count)
system.cpu.mmu.stage2_dtb.flushTlbMva               0                       # Number of times TLB was flushed by MVA (Count)
system.cpu.mmu.stage2_dtb.flushTlbMvaAsid            0                       # Number of times TLB was flushed by MVA & ASID (Count)
system.cpu.mmu.stage2_dtb.flushTlbAsid              0                       # Number of times TLB was flushed by ASID (Count)
system.cpu.mmu.stage2_dtb.flushedEntries            0                       # Number of entries that have been flushed from TLB (Count)
system.cpu.mmu.stage2_dtb.readAccesses              0                       # Read accesses (Count)
system.cpu.mmu.stage2_dtb.writeAccesses             0                       # Write accesses (Count)
system.cpu.mmu.stage2_dtb.hits                      0                       # Total TLB (inst and data) hits (Count)
system.cpu.mmu.stage2_dtb.misses                    0                       # Total TLB (inst and data) misses (Count)
system.cpu.mmu.stage2_dtb.accesses                  0                       # Total TLB (inst and data) accesses (Count)
system.cpu.mmu.stage2_dtb_walker.walks              0                       # Table walker walks requested (Count)
system.cpu.mmu.stage2_dtb_walker.requestOrigin_Requested::Data            0                       # Table walker requests started/completed, data/inst (Count)
system.cpu.mmu.stage2_dtb_walker.requestOrigin_Requested::Inst            0                       # Table walker requests started/completed, data/inst (Count)
system.cpu.mmu.stage2_dtb_walker.requestOrigin_Requested::total            0                       # Table walker requests started/completed, data/inst (Count)
system.cpu.mmu.stage2_dtb_walker.requestOrigin_Completed::Data            0                       # Table walker requests started/completed, data/inst (Count)
system.cpu.mmu.stage2_dtb_walker.requestOrigin_Completed::Inst            0                       # Table walker requests started/completed, data/inst (Count)
system.cpu.mmu.stage2_dtb_walker.requestOrigin_Completed::total            0                       # Table walker requests started/completed, data/inst (Count)
system.cpu.mmu.stage2_dtb_walker.requestOrigin::total            0                       # Table walker requests started/completed, data/inst (Count)
system.cpu.mmu.stage2_dtb_walker.power_state.pwrStateResidencyTicks::UNDEFINED 120900416500                       # Cumulative time (in ticks) in various power states (Tick)
system.cpu.mmu.stage2_itb.instHits                  0                       # Inst hits (Count)
system.cpu.mmu.stage2_itb.instMisses                0                       # Inst misses (Count)
system.cpu.mmu.stage2_itb.inserts                   0                       # Number of times an entry is inserted into the TLB (Count)
system.cpu.mmu.stage2_itb.flushTlb                  0                       # Number of times complete TLB was flushed (Count)
system.cpu.mmu.stage2_itb.flushTlbMva               0                       # Number of times TLB was flushed by MVA (Count)
system.cpu.mmu.stage2_itb.flushTlbMvaAsid            0                       # Number of times TLB was flushed by MVA & ASID (Count)
system.cpu.mmu.stage2_itb.flushTlbAsid              0                       # Number of times TLB was flushed by ASID (Count)
system.cpu.mmu.stage2_itb.flushedEntries            0                       # Number of entries that have been flushed from TLB (Count)
system.cpu.mmu.stage2_itb.instAccesses              0                       # Inst accesses (Count)
system.cpu.mmu.stage2_itb.hits                      0                       # Total TLB (inst and data) hits (Count)
system.cpu.mmu.stage2_itb.misses                    0                       # Total TLB (inst and data) misses (Count)
system.cpu.mmu.stage2_itb.accesses                  0                       # Total TLB (inst and data) accesses (Count)
system.cpu.mmu.stage2_itb_walker.walks              0                       # Table walker walks requested (Count)
system.cpu.mmu.stage2_itb_walker.requestOrigin_Requested::Data            0                       # Table walker requests started/completed, data/inst (Count)
system.cpu.mmu.stage2_itb_walker.requestOrigin_Requested::Inst            0                       # Table walker requests started/completed, data/inst (Count)
system.cpu.mmu.stage2_itb_walker.requestOrigin_Requested::total            0                       # Table walker requests started/completed, data/inst (Count)
system.cpu.mmu.stage2_itb_walker.requestOrigin_Completed::Data            0                       # Table walker requests started/completed, data/inst (Count)
system.cpu.mmu.stage2_itb_walker.requestOrigin_Completed::Inst            0                       # Table walker requests started/completed, data/inst (Count)
system.cpu.mmu.stage2_itb_walker.requestOrigin_Completed::total            0                       # Table walker requests started/completed, data/inst (Count)
system.cpu.mmu.stage2_itb_walker.requestOrigin::total            0                       # Table walker requests started/completed, data/inst (Count)
system.cpu.mmu.stage2_itb_walker.power_state.pwrStateResidencyTicks::UNDEFINED 120900416500                       # Cumulative time (in ticks) in various power states (Tick)
system.cpu.power_state.pwrStateResidencyTicks::ON 120900416500                       # Cumulative time (in ticks) in various power states (Tick)
system.cpu.thread_0.numInsts                100000000                       # Number of Instructions committed (Count)
system.cpu.thread_0.numOps                  100001797                       # Number of Ops committed (Count)
system.cpu.thread_0.numMemRefs                      0                       # Number of Memory References (Count)
system.cpu.workload.numSyscalls                    16                       # Number of system calls (Count)
system.cpu_clk_domain.clock                       500                       # Clock period in ticks (Tick)
system.cpu_voltage_domain.voltage                   1                       # Voltage in Volts (Volt)
system.l2.demandHits::cpu.inst                     48                       # number of demand (read+write) hits (Count)
system.l2.demandHits::cpu.data                      4                       # number of demand (read+write) hits (Count)
system.l2.demandHits::total                        52                       # number of demand (read+write) hits (Count)
system.l2.overallHits::cpu.inst                    48                       # number of overall hits (Count)
system.l2.overallHits::cpu.data                     4                       # number of overall hits (Count)
system.l2.overallHits::total                       52                       # number of overall hits (Count)
system.l2.demandMisses::cpu.inst                  423                       # number of demand (read+write) misses (Count)
system.l2.demandMisses::cpu.data               668403                       # number of demand (read+write) misses (Count)
system.l2.demandMisses::total                  668826                       # number of demand (read+write) misses (Count)
system.l2.overallMisses::cpu.inst                 423                       # number of overall misses (Count)
system.l2.overallMisses::cpu.data              668403                       # number of overall misses (Count)
system.l2.overallMisses::total                 668826                       # number of overall misses (Count)
system.l2.demandMissLatency::cpu.inst        34778500                       # number of demand (read+write) miss ticks (Tick)
system.l2.demandMissLatency::cpu.data     62651335000                       # number of demand (read+write) miss ticks (Tick)
system.l2.demandMissLatency::total        62686113500                       # number of demand (read+write) miss ticks (Tick)
system.l2.overallMissLatency::cpu.inst       34778500                       # number of overall miss ticks (Tick)
system.l2.overallMissLatency::cpu.data    62651335000                       # number of overall miss ticks (Tick)
system.l2.overallMissLatency::total       62686113500                       # number of overall miss ticks (Tick)
system.l2.demandAccesses::cpu.inst                471                       # number of demand (read+write) accesses (Count)
system.l2.demandAccesses::cpu.data             668407                       # number of demand (read+write) accesses (Count)
system.l2.demandAccesses::total                668878                       # number of demand (read+write) accesses (Count)
system.l2.overallAccesses::cpu.inst               471                       # number of overall (read+write) accesses (Count)
system.l2.overallAccesses::cpu.data            668407                       # number of overall (read+write) accesses (Count)
system.l2.overallAccesses::total               668878                       # number of overall (read+write) accesses (Count)
system.l2.demandMissRate::cpu.inst           0.898089                       # miss rate for demand accesses (Ratio)
system.l2.demandMissRate::cpu.data           0.999994                       # miss rate for demand accesses (Ratio)
system.l2.demandMissRate::total              0.999922                       # miss rate for demand accesses (Ratio)
system.l2.overallMissRate::cpu.inst          0.898089                       # miss rate for overall accesses (Ratio)
system.l2.overallMissRate::cpu.data          0.999994                       # miss rate for overall accesses (Ratio)
system.l2.overallMissRate::total             0.999922                       # miss rate for overall accesses (Ratio)
system.l2.demandAvgMissLatency::cpu.inst 82218.676123                       # average overall miss latency in ticks ((Tick/Count))
system.l2.demandAvgMissLatency::cpu.data 93732.875226                       # average overall miss latency in ticks ((Tick/Count))
system.l2.demandAvgMissLatency::total    93725.593054                       # average overall miss latency in ticks ((Tick/Count))
system.l2.overallAvgMissLatency::cpu.inst 82218.676123                       # average overall miss latency ((Tick/Count))
system.l2.overallAvgMissLatency::cpu.data 93732.875226                       # average overall miss latency ((Tick/Count))
system.l2.overallAvgMissLatency::total   93725.593054                       # average overall miss latency ((Tick/Count))
system.l2.blockedCycles::no_mshrs                   0                       # number of cycles access was blocked (Cycle)
system.l2.blockedCycles::no_targets                 0                       # number of cycles access was blocked (Cycle)
system.l2.blockedCauses::no_mshrs                   0                       # number of times access was blocked (Count)
system.l2.blockedCauses::no_targets                 0                       # number of times access was blocked (Count)
system.l2.avgBlocked::no_mshrs                    nan                       # average number of cycles each access was blocked ((Cycle/Count))
system.l2.avgBlocked::no_targets                  nan                       # average number of cycles each access was blocked ((Cycle/Count))
system.l2.writebacks::writebacks               651945                       # number of writebacks (Count)
system.l2.writebacks::total                    651945                       # number of writebacks (Count)
system.l2.demandMshrMisses::cpu.inst              423                       # number of demand (read+write) MSHR misses (Count)
system.l2.demandMshrMisses::cpu.data           668403                       # number of demand (read+write) MSHR misses (Count)
system.l2.demandMshrMisses::total              668826                       # number of demand (read+write) MSHR misses (Count)
system.l2.overallMshrMisses::cpu.inst             423                       # number of overall MSHR misses (Count)
system.l2.overallMshrMisses::cpu.data          668403                       # number of overall MSHR misses (Count)
system.l2.overallMshrMisses::total             668826                       # number of overall MSHR misses (Count)
system.l2.demandMshrMissLatency::cpu.inst     30548500                       # number of demand (read+write) MSHR miss ticks (Tick)
system.l2.demandMshrMissLatency::cpu.data  55967305000                       # number of demand (read+write) MSHR miss ticks (Tick)
system.l2.demandMshrMissLatency::total    55997853500                       # number of demand (read+write) MSHR miss ticks (Tick)
system.l2.overallMshrMissLatency::cpu.inst     30548500                       # number of overall MSHR miss ticks (Tick)
system.l2.overallMshrMissLatency::cpu.data  55967305000                       # number of overall MSHR miss ticks (Tick)
system.l2.overallMshrMissLatency::total   55997853500                       # number of overall MSHR miss ticks (Tick)
system.l2.demandMshrMissRate::cpu.inst       0.898089                       # mshr miss ratio for demand accesses (Ratio)
system.l2.demandMshrMissRate::cpu.data       0.999994                       # mshr miss ratio for demand accesses (Ratio)
system.l2.demandMshrMissRate::total          0.999922                       # mshr miss ratio for demand accesses (Ratio)
system.l2.overallMshrMissRate::cpu.inst      0.898089                       # mshr miss ratio for overall accesses (Ratio)
system.l2.overallMshrMissRate::cpu.data      0.999994                       # mshr miss ratio for overall accesses (Ratio)
system.l2.overallMshrMissRate::total         0.999922                       # mshr miss ratio for overall accesses (Ratio)
system.l2.demandAvgMshrMissLatency::cpu.inst 72218.676123                       # average overall mshr miss latency ((Tick/Count))
system.l2.demandAvgMshrMissLatency::cpu.data 83732.875226                       # average overall mshr miss latency ((Tick/Count))
system.l2.demandAvgMshrMissLatency::total 83725.593054                       # average overall mshr miss latency ((Tick/Count))
system.l2.overallAvgMshrMissLatency::cpu.inst 72218.676123                       # average overall mshr miss latency ((Tick/Count))
system.l2.overallAvgMshrMissLatency::cpu.data 83732.875226                       # average overall mshr miss latency ((Tick/Count))
system.l2.overallAvgMshrMissLatency::total 83725.593054                       # average overall mshr miss latency ((Tick/Count))
system.l2.replacements                         652442                       # number of replacements (Count)
system.l2.ReadCleanReq.hits::cpu.inst              48                       # number of ReadCleanReq hits (Count)
system.l2.ReadCleanReq.hits::total                 48                       # number of ReadCleanReq hits (Count)
system.l2.ReadCleanReq.misses::cpu.inst           423                       # number of ReadCleanReq misses (Count)
system.l2.ReadCleanReq.misses::total              423                       # number of ReadCleanReq misses (Count)
system.l2.ReadCleanReq.missLatency::cpu.inst     34778500                       # number of ReadCleanReq miss ticks (Tick)
system.l2.ReadCleanReq.missLatency::total     34778500                       # number of ReadCleanReq miss ticks (Tick)
system.l2.ReadCleanReq.accesses::cpu.inst          471                       # number of ReadCleanReq accesses(hits+misses) (Count)
system.l2.ReadCleanReq.accesses::total            471                       # number of ReadCleanReq accesses(hits+misses) (Count)
system.l2.ReadCleanReq.missRate::cpu.inst     0.898089                       # miss rate for ReadCleanReq accesses (Ratio)
system.l2.ReadCleanReq.missRate::total       0.898089                       # miss rate for ReadCleanReq accesses (Ratio)
system.l2.ReadCleanReq.avgMissLatency::cpu.inst 82218.676123                       # average ReadCleanReq miss latency ((Tick/Count))
system.l2.ReadCleanReq.avgMissLatency::total 82218.676123                       # average ReadCleanReq miss latency ((Tick/Count))
system.l2.ReadCleanReq.mshrMisses::cpu.inst          423                       # number of ReadCleanReq MSHR misses (Count)
system.l2.ReadCleanReq.mshrMisses::total          423                       # number of ReadCleanReq MSHR misses (Count)
system.l2.ReadCleanReq.mshrMissLatency::cpu.inst     30548500                       # number of ReadCleanReq MSHR miss ticks (Tick)
system.l2.ReadCleanReq.mshrMissLatency::total     30548500                       # number of ReadCleanReq MSHR miss ticks (Tick)
system.l2.ReadCleanReq.mshrMissRate::cpu.inst     0.898089                       # mshr miss rate for ReadCleanReq accesses (Ratio)
system.l2.ReadCleanReq.mshrMissRate::total     0.898089                       # mshr miss rate for ReadCleanReq accesses (Ratio)
system.l2.ReadCleanReq.avgMshrMissLatency::cpu.inst 72218.676123                       # average ReadCleanReq mshr miss latency ((Tick/Count))
system.l2.ReadCleanReq.avgMshrMissLatency::total 72218.676123                       # average ReadCleanReq mshr miss latency ((Tick/Count))
system.l2.ReadExReq.hits::cpu.data                  2                       # number of ReadExReq hits (Count)
system.l2.ReadExReq.hits::total                     2                       # number of ReadExReq hits (Count)
system.l2.ReadExReq.misses::cpu.data           668316                       # number of ReadExReq misses (Count)
system.l2.ReadExReq.misses::total              668316                       # number of ReadExReq misses (Count)
system.l2.ReadExReq.missLatency::cpu.data  62643867500                       # number of ReadExReq miss ticks (Tick)
system.l2.ReadExReq.missLatency::total    62643867500                       # number of ReadExReq miss ticks (Tick)
system.l2.ReadExReq.accesses::cpu.data         668318                       # number of ReadExReq accesses(hits+misses) (Count)
system.l2.ReadExReq.accesses::total            668318                       # number of ReadExReq accesses(hits+misses) (Count)
system.l2.ReadExReq.missRate::cpu.data       0.999997                       # miss rate for ReadExReq accesses (Ratio)
system.l2.ReadExReq.missRate::total          0.999997                       # miss rate for ReadExReq accesses (Ratio)
system.l2.ReadExReq.avgMissLatency::cpu.data 93733.903573                       # average ReadExReq miss latency ((Tick/Count))
system.l2.ReadExReq.avgMissLatency::total 93733.903573                       # average ReadExReq miss latency ((Tick/Count))
system.l2.ReadExReq.mshrMisses::cpu.data       668316                       # number of ReadExReq MSHR misses (Count)
system.l2.ReadExReq.mshrMisses::total          668316                       # number of ReadExReq MSHR misses (Count)
system.l2.ReadExReq.mshrMissLatency::cpu.data  55960707500                       # number of ReadExReq MSHR miss ticks (Tick)
system.l2.ReadExReq.mshrMissLatency::total  55960707500                       # number of ReadExReq MSHR miss ticks (Tick)
system.l2.ReadExReq.mshrMissRate::cpu.data     0.999997                       # mshr miss rate for ReadExReq accesses (Ratio)
system.l2.ReadExReq.mshrMissRate::total      0.999997                       # mshr miss rate for ReadExReq accesses (Ratio)
system.l2.ReadExReq.avgMshrMissLatency::cpu.data 83733.903573                       # average ReadExReq mshr miss latency ((Tick/Count))
system.l2.ReadExReq.avgMshrMissLatency::total 83733.903573                       # average ReadExReq mshr miss latency ((Tick/Count))
system.l2.ReadSharedReq.hits::cpu.data              2                       # number of ReadSharedReq hits (Count)
system.l2.ReadSharedReq.hits::total                 2                       # number of ReadSharedReq hits (Count)
system.l2.ReadSharedReq.misses::cpu.data           87                       # number of ReadSharedReq misses (Count)
system.l2.ReadSharedReq.misses::total              87                       # number of ReadSharedReq misses (Count)
system.l2.ReadSharedReq.missLatency::cpu.data      7467500                       # number of ReadSharedReq miss ticks (Tick)
system.l2.ReadSharedReq.missLatency::total      7467500                       # number of ReadSharedReq miss ticks (Tick)
system.l2.ReadSharedReq.accesses::cpu.data           89                       # number of ReadSharedReq accesses(hits+misses) (Count)
system.l2.ReadSharedReq.accesses::total            89                       # number of ReadSharedReq accesses(hits+misses) (Count)
system.l2.ReadSharedReq.missRate::cpu.data     0.977528                       # miss rate for ReadSharedReq accesses (Ratio)
system.l2.ReadSharedReq.missRate::total      0.977528                       # miss rate for ReadSharedReq accesses (Ratio)
system.l2.ReadSharedReq.avgMissLatency::cpu.data 85833.333333                       # average ReadSharedReq miss latency ((Tick/Count))
system.l2.ReadSharedReq.avgMissLatency::total 85833.333333                       # average ReadSharedReq miss latency ((Tick/Count))
system.l2.ReadSharedReq.mshrMisses::cpu.data           87                       # number of ReadSharedReq MSHR misses (Count)
system.l2.ReadSharedReq.mshrMisses::total           87                       # number of ReadSharedReq MSHR misses (Count)
system.l2.ReadSharedReq.mshrMissLatency::cpu.data      6597500                       # number of ReadSharedReq MSHR miss ticks (Tick)
system.l2.ReadSharedReq.mshrMissLatency::total      6597500                       # number of ReadSharedReq MSHR miss ticks (Tick)
system.l2.ReadSharedReq.mshrMissRate::cpu.data     0.977528                       # mshr miss rate for ReadSharedReq accesses (Ratio)
system.l2.ReadSharedReq.mshrMissRate::total     0.977528                       # mshr miss rate for ReadSharedReq accesses (Ratio)
system.l2.ReadSharedReq.avgMshrMissLatency::cpu.data 75833.333333                       # average ReadSharedReq mshr miss latency ((Tick/Count))
system.l2.ReadSharedReq.avgMshrMissLatency::total 75833.333333                       # average ReadSharedReq mshr miss latency ((Tick/Count))
system.l2.WritebackClean.hits::writebacks          222                       # number of WritebackClean hits (Count)
system.l2.WritebackClean.hits::total              222                       # number of WritebackClean hits (Count)
system.l2.WritebackClean.accesses::writebacks          222                       # number of WritebackClean accesses(hits+misses) (Count)
system.l2.WritebackClean.accesses::total          222                       # number of WritebackClean accesses(hits+misses) (Count)
system.l2.WritebackDirty.hits::writebacks       667821                       # number of WritebackDirty hits (Count)
system.l2.WritebackDirty.hits::total           667821                       # number of WritebackDirty hits (Count)
system.l2.WritebackDirty.accesses::writebacks       667821                       # number of WritebackDirty accesses(hits+misses) (Count)
system.l2.WritebackDirty.accesses::total       667821                       # number of WritebackDirty accesses(hits+misses) (Count)
system.l2.power_state.pwrStateResidencyTicks::UNDEFINED 120900416500                       # Cumulative time (in ticks) in various power states (Tick)
system.l2.tags.tagsInUse                 16201.884523                       # Average ticks per tags in use ((Tick/Count))
system.l2.tags.totalRefs                      1336994                       # Total number of references to valid blocks. (Count)
system.l2.tags.sampledRefs                     668826                       # Sample count of references to valid blocks. (Count)
system.l2.tags.avgRefs                       1.999016                       # Average number of references to valid blocks. ((Count/Count))
system.l2.tags.warmupTick                       82000                       # The tick when the warmup percentage was hit. (Tick)
system.l2.tags.occupancies::cpu.inst         9.058248                       # Average occupied blocks per tick, per requestor ((Count/Tick))
system.l2.tags.occupancies::cpu.data     16192.826276                       # Average occupied blocks per tick, per requestor ((Count/Tick))
system.l2.tags.avgOccs::cpu.inst             0.000553                       # Average percentage of cache occupancy ((Ratio/Tick))
system.l2.tags.avgOccs::cpu.data             0.988332                       # Average percentage of cache occupancy ((Ratio/Tick))
system.l2.tags.avgOccs::total                0.988885                       # Average percentage of cache occupancy ((Ratio/Tick))
system.l2.tags.occupanciesTaskId::1024          16384                       # Occupied blocks per task id (Count)
system.l2.tags.ageTaskId_1024::0                   56                       # Occupied blocks per task id, per block age (Count)
system.l2.tags.ageTaskId_1024::1                  494                       # Occupied blocks per task id, per block age (Count)
system.l2.tags.ageTaskId_1024::2                 4971                       # Occupied blocks per task id, per block age (Count)
system.l2.tags.ageTaskId_1024::3                10863                       # Occupied blocks per task id, per block age (Count)
system.l2.tags.ratioOccsTaskId::1024                1                       # Ratio of occupied blocks and all blocks, per task id (Ratio)
system.l2.tags.tagAccesses                   11364778                       # Number of tag accesses (Count)
system.l2.tags.dataAccesses                  11364778                       # Number of data accesses (Count)
system.l2.tags.power_state.pwrStateResidencyTicks::UNDEFINED 120900416500                       # Cumulative time (in ticks) in various power states (Tick)
system.mem_ctrls.avgPriority_writebacks::samples   1303890.00                       # Average QoS priority value for accepted requests (Count)
system.mem_ctrls.avgPriority_cpu.inst::samples       846.00                       # Average QoS priority value for accepted requests (Count)
system.mem_ctrls.avgPriority_cpu.data::samples   1336806.00                       # Average QoS priority value for accepted requests (Count)
system.mem_ctrls.priorityMinLatency      0.000000018750                       # per QoS priority minimum request to response latency (Second)
system.mem_ctrls.priorityMaxLatency      0.000065560500                       # per QoS priority maximum request to response latency (Second)
system.mem_ctrls.numReadWriteTurnArounds        72521                       # Number of turnarounds from READ to WRITE (Count)
system.mem_ctrls.numWriteReadTurnArounds        72521                       # Number of turnarounds from WRITE to READ (Count)
system.mem_ctrls.numStayReadState             2631841                       # Number of times bus staying in READ state (Count)
system.mem_ctrls.numStayWriteState            1235639                       # Number of times bus staying in WRITE state (Count)
system.mem_ctrls.readReqs                      668826                       # Number of read requests accepted (Count)
system.mem_ctrls.writeReqs                     651945                       # Number of write requests accepted (Count)
system.mem_ctrls.readBursts                   1337652                       # Number of controller read bursts, including those serviced by the write queue (Count)
system.mem_ctrls.writeBursts                  1303890                       # Number of controller write bursts, including those merged in the write queue (Count)
system.mem_ctrls.servicedByWrQ                      0                       # Number of controller read bursts serviced by the write queue (Count)
system.mem_ctrls.mergedWrBursts                     0                       # Number of controller write bursts merged with an existing one (Count)
system.mem_ctrls.neitherReadNorWriteReqs            0                       # Number of requests that are neither read nor write (Count)
system.mem_ctrls.avgRdQLen                       2.00                       # Average read queue length when enqueuing ((Count/Tick))
system.mem_ctrls.avgWrQLen                      25.05                       # Average write queue length when enqueuing ((Count/Tick))
system.mem_ctrls.numRdRetry                         0                       # Number of times read queue was full causing retry (Count)
system.mem_ctrls.numWrRetry                         0                       # Number of times write queue was full causing retry (Count)
system.mem_ctrls.readPktSize::0                     0                       # Read request sizes (log2) (Count)
system.mem_ctrls.readPktSize::1                     0                       # Read request sizes (log2) (Count)
system.mem_ctrls.readPktSize::2                     0                       # Read request sizes (log2) (Count)
system.mem_ctrls.readPktSize::3                     0                       # Read request sizes (log2) (Count)
system.mem_ctrls.readPktSize::4                     0                       # Read request sizes (log2) (Count)
system.mem_ctrls.readPktSize::5                     0                       # Read request sizes (log2) (Count)
system.mem_ctrls.readPktSize::6               1337652                       # Read request sizes (log2) (Count)
system.mem_ctrls.readPktSize::7                     0                       # Read request sizes (log2) (Count)
system.mem_ctrls.writePktSize::0                    0                       # Write request sizes (log2) (Count)
system.mem_ctrls.writePktSize::1                    0                       # Write request sizes (log2) (Count)
system.mem_ctrls.writePktSize::2                    0                       # Write request sizes (log2) (Count)
system.mem_ctrls.writePktSize::3                    0                       # Write request sizes (log2) (Count)
system.mem_ctrls.writePktSize::4                    0                       # Write request sizes (log2) (Count)
system.mem_ctrls.writePktSize::5                    0                       # Write request sizes (log2) (Count)
system.mem_ctrls.writePktSize::6              1303890                       # Write request sizes (log2) (Count)
system.mem_ctrls.writePktSize::7                    0                       # Write request sizes (log2) (Count)
system.mem_ctrls.rdQLenPdf::0                  668745                       # What read queue length does an incoming req see (Count)
system.mem_ctrls.rdQLenPdf::1                  668747                       # What read queue length does an incoming req see (Count)
system.mem_ctrls.rdQLenPdf::2                      75                       # What read queue length does an incoming req see (Count)
system.mem_ctrls.rdQLenPdf::3                      75                       # What read queue length does an incoming req see (Count)
system.mem_ctrls.rdQLenPdf::4                       6                       # What read queue length does an incoming req see (Count)
system.mem_ctrls.rdQLenPdf::5                       4                       # What read queue length does an incoming req see (Count)
system.mem_ctrls.rdQLenPdf::6                       0                       # What read queue length does an incoming req see (Count)
system.mem_ctrls.rdQLenPdf::7                       0                       # What read queue length does an incoming req see (Count)
[...]
system.mem_ctrls.dram.perBankWrBursts::9        81536                       # Per bank write bursts (Count)
system.mem_ctrls.dram.perBankWrBursts::10        81536                       # Per bank write bursts (Count)
system.mem_ctrls.dram.perBankWrBursts::11        81536                       # Per bank write bursts (Count)
system.mem_ctrls.dram.perBankWrBursts::12        81546                       # Per bank write bursts (Count)
system.mem_ctrls.dram.perBankWrBursts::13        81475                       # Per bank write bursts (Count)
system.mem_ctrls.dram.perBankWrBursts::14        81422                       # Per bank write bursts (Count)
system.mem_ctrls.dram.perBankWrBursts::15        81408                       # Per bank write bursts (Count)
system.mem_ctrls.dram.totQLat             28061320500                       # Total ticks spent queuing (Tick)
system.mem_ctrls.dram.totBusLat            6688260000                       # Total ticks spent in databus transfers (Tick)
system.mem_ctrls.dram.totMemAccLat        53142295500                       # Total ticks spent from burst creation until serviced by the DRAM (Tick)
system.mem_ctrls.dram.avgQLat                20978.04                       # Average queueing delay per DRAM burst ((Tick/Count))
system.mem_ctrls.dram.avgBusLat               5000.00                       # Average bus latency per DRAM burst ((Tick/Count))
system.mem_ctrls.dram.avgMemAccLat           39728.04                       # Average memory access latency per DRAM burst ((Tick/Count))
system.mem_ctrls.dram.readRowHits             1188309                       # Number of row buffer hits during reads (Count)
system.mem_ctrls.dram.writeRowHits            1158259                       # Number of row buffer hits during writes (Count)
system.mem_ctrls.dram.readRowHitRate            88.84                       # Row buffer hit rate for reads (Ratio)
system.mem_ctrls.dram.writeRowHitRate           88.83                       # Row buffer hit rate for writes (Ratio)
system.mem_ctrls.dram.bytesPerActivate::samples       294951                       # Bytes accessed per row activation (Byte)
system.mem_ctrls.dram.bytesPerActivate::mean   573.167692                       # Bytes accessed per row activation (Byte)
system.mem_ctrls.dram.bytesPerActivate::gmean   379.134969                       # Bytes accessed per row activation (Byte)
system.mem_ctrls.dram.bytesPerActivate::stdev   420.921437                       # Bytes accessed per row activation (Byte)
system.mem_ctrls.dram.bytesPerActivate::0-127         5878      1.99%      1.99% # Bytes accessed per row activation (Byte)
system.mem_ctrls.dram.bytesPerActivate::128-255       118723     40.25%     42.24% # Bytes accessed per row activation (Byte)
system.mem_ctrls.dram.bytesPerActivate::256-383         9092      3.08%     45.33% # Bytes accessed per row activation (Byte)
system.mem_ctrls.dram.bytesPerActivate::384-511         8597      2.91%     48.24% # Bytes accessed per row activation (Byte)
system.mem_ctrls.dram.bytesPerActivate::512-639         7917      2.68%     50.93% # Bytes accessed per row activation (Byte)
system.mem_ctrls.dram.bytesPerActivate::640-767         6624      2.25%     53.17% # Bytes accessed per row activation (Byte)
system.mem_ctrls.dram.bytesPerActivate::768-895         8088      2.74%     55.91% # Bytes accessed per row activation (Byte)
system.mem_ctrls.dram.bytesPerActivate::896-1023         7275      2.47%     58.38% # Bytes accessed per row activation (Byte)
system.mem_ctrls.dram.bytesPerActivate::1024-1151       122757     41.62%    100.00% # Bytes accessed per row activation (Byte)
system.mem_ctrls.dram.bytesPerActivate::total       294951                       # Bytes accessed per row activation (Byte)
system.mem_ctrls.dram.bytesRead              85609728                       # Total bytes read (Byte)
system.mem_ctrls.dram.bytesWritten           83447616                       # Total bytes written (Byte)
system.mem_ctrls.dram.avgRdBW              708.101183                       # Average DRAM read bandwidth in MiBytes/s ((Byte/Second))
system.mem_ctrls.dram.avgWrBW              690.217771                       # Average DRAM write bandwidth in MiBytes/s ((Byte/Second))
system.mem_ctrls.dram.peakBW                 12800.00                       # Theoretical peak bandwidth in MiByte/s ((Byte/Second))
system.mem_ctrls.dram.busUtil                   10.92                       # Data bus utilization in percentage (Ratio)
system.mem_ctrls.dram.busUtilRead                5.53                       # Data bus utilization in percentage for reads (Ratio)
system.mem_ctrls.dram.busUtilWrite               5.39                       # Data bus utilization in percentage for writes (Ratio)
system.mem_ctrls.dram.pageHitRate               88.83                       # Row buffer hit rate, read and write combined (Ratio)
system.mem_ctrls.dram.power_state.pwrStateResidencyTicks::UNDEFINED 120900416500                       # Cumulative time (in ticks) in various power states (Tick)
system.mem_ctrls.dram.rank0.actEnergy      1052885820                       # Energy for activate commands per rank (pJ) (Joule)
system.mem_ctrls.dram.rank0.preEnergy       559622085                       # Energy for precharge commands per rank (pJ) (Joule)
system.mem_ctrls.dram.rank0.readEnergy     4775503320                       # Energy for read commands per rank (pJ) (Joule)
system.mem_ctrls.dram.rank0.writeEnergy    3402782280                       # Energy for write commands per rank (pJ) (Joule)
system.mem_ctrls.dram.rank0.refreshEnergy 9543515280.000002                       # Energy for refresh commands per rank (pJ) (Joule)
system.mem_ctrls.dram.rank0.actBackEnergy  28167747570                       # Energy for active background per rank (pJ) (Joule)
system.mem_ctrls.dram.rank0.preBackEnergy  22705551840                       # Energy for precharge background per rank (pJ) (Joule)
system.mem_ctrls.dram.rank0.actPowerDownEnergy            0                       # Energy for active power-down per rank (pJ) (Joule)
system.mem_ctrls.dram.rank0.prePowerDownEnergy            0                       # Energy for precharge power-down per rank (pJ) (Joule)
system.mem_ctrls.dram.rank0.selfRefreshEnergy            0                       # Energy for self refresh per rank (pJ) (Joule)
system.mem_ctrls.dram.rank0.totalEnergy   70207608195                       # Total energy per rank (pJ) (Joule)
system.mem_ctrls.dram.rank0.averagePower   580.706090                       # Core power per rank (mW) (Watt)
system.mem_ctrls.dram.rank0.totalIdleTime            0                       # Total Idle time Per DRAM Rank (Tick)
system.mem_ctrls.dram.rank0.pwrStateTime::IDLE  57727486750                       # Time in different power states (Tick)
system.mem_ctrls.dram.rank0.pwrStateTime::REF   4037020000                       # Time in different power states (Tick)
system.mem_ctrls.dram.rank0.pwrStateTime::SREF            0                       # Time in different power states (Tick)
system.mem_ctrls.dram.rank0.pwrStateTime::PRE_PDN            0                       # Time in different power states (Tick)
system.mem_ctrls.dram.rank0.pwrStateTime::ACT  59135909750                       # Time in different power states (Tick)
system.mem_ctrls.dram.rank0.pwrStateTime::ACT_PDN            0                       # Time in different power states (Tick)
system.mem_ctrls.dram.rank1.actEnergy      1053078600                       # Energy for activate commands per rank (pJ) (Joule)
system.mem_ctrls.dram.rank1.preEnergy       559716960                       # Energy for precharge commands per rank (pJ) (Joule)
system.mem_ctrls.dram.rank1.readEnergy     4775331960                       # Energy for read commands per rank (pJ) (Joule)
system.mem_ctrls.dram.rank1.writeEnergy    3403413900                       # Energy for write commands per rank (pJ) (Joule)
system.mem_ctrls.dram.rank1.refreshEnergy 9543515280.000002                       # Energy for refresh commands per rank (pJ) (Joule)
system.mem_ctrls.dram.rank1.actBackEnergy  28175512110                       # Energy for active background per rank (pJ) (Joule)
system.mem_ctrls.dram.rank1.preBackEnergy  22699013280                       # Energy for precharge background per rank (pJ) (Joule)
system.mem_ctrls.dram.rank1.actPowerDownEnergy            0                       # Energy for active power-down per rank (pJ) (Joule)
system.mem_ctrls.dram.rank1.prePowerDownEnergy            0                       # Energy for precharge power-down per rank (pJ) (Joule)
system.mem_ctrls.dram.rank1.selfRefreshEnergy            0                       # Energy for self refresh per rank (pJ) (Joule)
system.mem_ctrls.dram.rank1.totalEnergy   70209582090                       # Total energy per rank (pJ) (Joule)
system.mem_ctrls.dram.rank1.averagePower   580.722417                       # Core power per rank (mW) (Watt)
system.mem_ctrls.dram.rank1.totalIdleTime            0                       # Total Idle time Per DRAM Rank (Tick)
system.mem_ctrls.dram.rank1.pwrStateTime::IDLE  57708410000                       # Time in different power states (Tick)
system.mem_ctrls.dram.rank1.pwrStateTime::REF   4037020000                       # Time in different power states (Tick)
system.mem_ctrls.dram.rank1.pwrStateTime::SREF            0                       # Time in different power states (Tick)
system.mem_ctrls.dram.rank1.pwrStateTime::PRE_PDN            0                       # Time in different power states (Tick)
system.mem_ctrls.dram.rank1.pwrStateTime::ACT  59154986500                       # Time in different power states (Tick)
system.mem_ctrls.dram.rank1.pwrStateTime::ACT_PDN            0                       # Time in different power states (Tick)
system.mem_ctrls.power_state.pwrStateResidencyTicks::UNDEFINED 120900416500                       # Cumulative time (in ticks) in various power states (Tick)
system.membus.transDist::ReadResp                 510                       # Transaction distribution (Count)
system.membus.transDist::WritebackDirty        651945                       # Transaction distribution (Count)
system.membus.transDist::CleanEvict               247                       # Transaction distribution (Count)
system.membus.transDist::ReadExReq             668316                       # Transaction distribution (Count)
system.membus.transDist::ReadExResp            668316                       # Transaction distribution (Count)
system.membus.transDist::ReadSharedReq            510                       # Transaction distribution (Count)
system.membus.pktCount_system.l2.mem_side_port::system.mem_ctrls.port      1989844                       # Packet count per connected requestor and responder (Count)
system.membus.pktCount::total                 1989844                       # Packet count per connected requestor and responder (Count)
system.membus.pktSize_system.l2.mem_side_port::system.mem_ctrls.port    169058688                       # Cumulative packet size per connected requestor and responder (Byte)
system.membus.pktSize::total                169058688                       # Cumulative packet size per connected requestor and responder (Byte)
system.membus.snoops                                0                       # Total snoops (Count)
system.membus.snoopTraffic                          0                       # Total snoop traffic (Byte)
system.membus.snoopFanout::samples             668826                       # Request fanout histogram (Count)
system.membus.snoopFanout::mean                     0                       # Request fanout histogram (Count)
system.membus.snoopFanout::stdev                    0                       # Request fanout histogram (Count)
system.membus.snoopFanout::underflows               0      0.00%      0.00% # Request fanout histogram (Count)
system.membus.snoopFanout::0                   668826    100.00%    100.00% # Request fanout histogram (Count)
system.membus.snoopFanout::1                        0      0.00%    100.00% # Request fanout histogram (Count)
system.membus.snoopFanout::overflows                0      0.00%    100.00% # Request fanout histogram (Count)
system.membus.snoopFanout::min_value                0                       # Request fanout histogram (Count)
system.membus.snoopFanout::max_value                0                       # Request fanout histogram (Count)
system.membus.snoopFanout::total               668826                       # Request fanout histogram (Count)
system.membus.power_state.pwrStateResidencyTicks::UNDEFINED 120900416500                       # Cumulative time (in ticks) in various power states (Tick)
system.membus.reqLayer0.occupancy          6862481000                       # Layer occupancy (ticks) (Tick)
system.membus.reqLayer0.utilization               0.1                       # Layer utilization (Ratio)
system.membus.respLayer1.occupancy         6232784250                       # Layer occupancy (ticks) (Tick)
system.membus.respLayer1.utilization              0.1                       # Layer utilization (Ratio)
system.membus.snoop_filter.totRequests        1321018                       # Total number of requests made to the snoop filter. (Count)
system.membus.snoop_filter.hitSingleRequests       652192                       # Number of requests hitting in the snoop filter with a single holder of the requested data. (Count)
system.membus.snoop_filter.hitMultiRequests            0                       # Number of requests hitting in the snoop filter with multiple (>1) holders of the requested data. (Count)
system.membus.snoop_filter.totSnoops                0                       # Total number of snoops made to the snoop filter. (Count)
system.membus.snoop_filter.hitSingleSnoops            0                       # Number of snoops hitting in the snoop filter with a single holder of the requested data. (Count)
system.membus.snoop_filter.hitMultiSnoops            0                       # Number of snoops hitting in the snoop filter with multiple (>1) holders of the requested data. (Count)
system.tol2bus.transDist::ReadResp                560                       # Transaction distribution (Count)
system.tol2bus.transDist::WritebackDirty      1319766                       # Transaction distribution (Count)
system.tol2bus.transDist::WritebackClean          223                       # Transaction distribution (Count)
system.tol2bus.transDist::CleanEvict              571                       # Transaction distribution (Count)
system.tol2bus.transDist::ReadExReq            668318                       # Transaction distribution (Count)
system.tol2bus.transDist::ReadExResp           668318                       # Transaction distribution (Count)
system.tol2bus.transDist::ReadCleanReq            471                       # Transaction distribution (Count)
system.tol2bus.transDist::ReadSharedReq            89                       # Transaction distribution (Count)
system.tol2bus.pktCount_system.cpu.icache.mem_side_port::system.l2.cpu_side_port         1165                       # Packet count per connected requestor and responder (Count)
system.tol2bus.pktCount_system.cpu.dcache.mem_side_port::system.l2.cpu_side_port      2004709                       # Packet count per connected requestor and responder (Count)
system.tol2bus.pktCount::total                2005874                       # Packet count per connected requestor and responder (Count)
system.tol2bus.pktSize_system.cpu.icache.mem_side_port::system.l2.cpu_side_port        88832                       # Cumulative packet size per connected requestor and responder (Byte)
system.tol2bus.pktSize_system.cpu.dcache.mem_side_port::system.l2.cpu_side_port    171037184                       # Cumulative packet size per connected requestor and responder (Byte)
system.tol2bus.pktSize::total               171126016                       # Cumulative packet size per connected requestor and responder (Byte)
system.tol2bus.snoops                          652442                       # Total snoops (Count)
system.tol2bus.snoopTraffic                  83448960                       # Total snoop traffic (Byte)
system.tol2bus.snoopFanout::samples           1321320                       # Request fanout histogram (Count)
system.tol2bus.snoopFanout::mean             0.000191                       # Request fanout histogram (Count)
system.tol2bus.snoopFanout::stdev            0.013809                       # Request fanout histogram (Count)
system.tol2bus.snoopFanout::underflows              0      0.00%      0.00% # Request fanout histogram (Count)
system.tol2bus.snoopFanout::0                 1321068     99.98%     99.98% # Request fanout histogram (Count)
system.tol2bus.snoopFanout::1                     252      0.02%    100.00% # Request fanout histogram (Count)
system.tol2bus.snoopFanout::2                       0      0.00%    100.00% # Request fanout histogram (Count)
system.tol2bus.snoopFanout::overflows               0      0.00%    100.00% # Request fanout histogram (Count)
system.tol2bus.snoopFanout::min_value               0                       # Request fanout histogram (Count)
system.tol2bus.snoopFanout::max_value               1                       # Request fanout histogram (Count)
system.tol2bus.snoopFanout::total             1321320                       # Request fanout histogram (Count)
system.tol2bus.power_state.pwrStateResidencyTicks::UNDEFINED 120900416500                       # Cumulative time (in ticks) in various power states (Tick)
system.tol2bus.reqLayer0.occupancy         2004586000                       # Layer occupancy (ticks) (Tick)
system.tol2bus.reqLayer0.utilization              0.0                       # Layer utilization (Ratio)
system.tol2bus.respLayer0.occupancy           1177500                       # Layer occupancy (ticks) (Tick)
system.tol2bus.respLayer0.utilization             0.0                       # Layer utilization (Ratio)
system.tol2bus.respLayer1.occupancy        1671017500                       # Layer occupancy (ticks) (Tick)
system.tol2bus.respLayer1.utilization             0.0                       # Layer utilization (Ratio)
system.tol2bus.snoop_filter.totRequests       1336996                       # Total number of requests made to the snoop filter. (Count)
system.tol2bus.snoop_filter.hitSingleRequests       668118                       # Number of requests hitting in the snoop filter with a single holder of the requested data. (Count)
system.tol2bus.snoop_filter.hitMultiRequests            2                       # Number of requests hitting in the snoop filter with multiple (>1) holders of the requested data. (Count)
system.tol2bus.snoop_filter.totSnoops             250                       # Total number of snoops made to the snoop filter. (Count)
system.tol2bus.snoop_filter.hitSingleSnoops          250                       # Number of snoops hitting in the snoop filter with a single holder of the requested data. (Count)
system.tol2bus.snoop_filter.hitMultiSnoops            0                       # Number of snoops hitting in the snoop filter with multiple (>1) holders of the requested data. (Count)
system.voltage_domain.voltage                       1                       # Voltage in Volts (Volt)
system.workload.inst.arm                            0                       # number of arm instructions executed (Count)
system.workload.inst.quiesce                        0                       # number of quiesce instructions executed (Count)
system.cpu.idleCycles                       128320743                       # Total number of cycles that the object has spent stopped (Unspecified)
system.cpu.tickCycles                       113480090                       # Number of cycles that the object actually ticked (Unspecified)

---------- End Simulation Statistics   ----------
