
---------- Begin Simulation Statistics ----------
simSeconds                                   0.189920                       # Number of seconds simulated (Second)
simTicks                                 189919693000                       # Number of ticks simulated (Tick)
finalTick                                189919693000                       # Number of ticks from beginning of simulation (restored from checkpoints and never reset) (Tick)
simFreq                                  1000000000000                       # The number of ticks per simulated second ((Tick/Second))
hostSeconds                                    309.63                       # Real time elapsed on the host (Second)
hostTickRate                                613369166                       # The number of ticks simulated per host second (ticks/s) ((Tick/Second))
hostMemory                                     688152                       # Number of bytes of host memory used (Byte)
simInsts                                    100000000                       # Number of instructions simulated (Count)
simOps                                      101168649                       # Number of ops (including micro ops) simulated (Count)
hostInstRate                                   322962                       # Simulator instruction rate (inst/s) ((Count/Second))
hostOpRate                                     326736                       # Simulator op (including micro ops) rate (op/s) ((Count/Second))
system.clk_domain.clock                          1000                       # Clock period in ticks (Tick)
system.cpu.numCycles                        379839386                       # Number of cpu cycles simulated (Cycle)
system.cpu.numWorkItemsStarted                      0                       # Number of work items this cpu started (Count)
system.cpu.numWorkItemsCompleted                    0                       # Number of work items this cpu completed (Count)
system.cpu.numInsts                         100000000                       # Number of instructions committed (Count)
system.cpu.numOps                           101168649                       # Number of ops (including micro ops) committed (Count)
system.cpu.numDiscardedOps                    1347251                       # Number of ops (including micro ops) which were discarded before commit (Count)
system.cpu.numFetchSuspends                         0                       # Number of times Execute suspended instruction fetching (Count)
system.cpu.cpi                               3.798394                       # CPI: cycles per instruction ((Cycle/Count))
system.cpu.ipc                               0.263269                       # IPC: instructions per cycle ((Count/Cycle))
system.cpu.committedInstType_0::No_OpClass         1323      0.00%      0.00% # Class of committed instruction (Count)
system.cpu.committedInstType_0::IntAlu       66212167     65.45%     65.45% # Class of committed instruction (Count)
system.cpu.committedInstType_0::IntMult         17229      0.02%     65.47% # Class of committed instruction (Count)
system.cpu.committedInstType_0::IntDiv          12194      0.01%     65.48% # Class of committed instruction (Count)
system.cpu.committedInstType_0::FloatAdd            0      0.00%     65.48% # Class of committed instruction (Count)
system.cpu.committedInstType_0::FloatCmp            5      0.00%     65.48% # Class of committed instruction (Count)
system.cpu.committedInstType_0::FloatCvt           25      0.00%     65.48% # Class of committed instruction (Count)
system.cpu.committedInstType_0::FloatMult            5      0.00%     65.48% # Class of committed instruction (Count)
system.cpu.committedInstType_0::FloatMultAcc            0      0.00%     65.48% # Class of committed instruction (Count)
system.cpu.committedInstType_0::FloatDiv            5      0.00%     65.48% # Class of committed instruction (Count)
system.cpu.committedInstType_0::FloatMisc         1158      0.00%     65.48% # Class of committed instruction (Count)
system.cpu.committedInstType_0::FloatSqrt            0      0.00%     65.48% # Class of committed instruction (Count)
system.cpu.committedInstType_0::SimdAdd          1013      0.00%     65.48% # Class of committed instruction (Count)
system.cpu.committedInstType_0::SimdAddAcc            0      0.00%     65.48% # Class of committed instruction (Count)
system.cpu.committedInstType_0::SimdAlu          1058      0.00%     65.48% # Class of committed instruction (Count)
system.cpu.committedInstType_0::SimdCmp          2099      0.00%     65.48% # Class of committed instruction (Count)
system.cpu.committedInstType_0::SimdCvt             0      0.00%     65.48% # Class of committed instruction (Count)
system.cpu.committedInstType_0::SimdMisc         3517      0.00%     65.49% # Class of committed instruction (Count)
system.cpu.committedInstType_0::SimdMult            0      0.00%     65.49% # Class of committed instruction (Count)
system.cpu.committedInstType_0::SimdMultAcc            0      0.00%     65.49% # Class of committed instruction (Count)
system.cpu.committedInstType_0::SimdShift            0      0.00%     65.49% # Class of committed instruction (Count)
system.cpu.committedInstType_0::SimdShiftAcc            0      0.00%     65.49% # Class of committed instruction (Count)
system.cpu.committedInstType_0::SimdDiv             0      0.00%     65.49% # Class of committed instruction (Count)
system.cpu.committedInstType_0::SimdSqrt            0      0.00%     65.49% # Class of committed instruction (Count)
system.cpu.committedInstType_0::SimdFloatAdd            0      0.00%     65.49% # Class of committed instruction (Count)
system.cpu.committedInstType_0::SimdFloatAlu            0      0.00%     65.49% # Class of committed instruction (Count)
system.cpu.committedInstType_0::SimdFloatCmp            0      0.00%     65.49% # Class of committed instruction (Count)
system.cpu.committedInstType_0::SimdFloatCvt            0      0.00%     65.49% # Class of committed instruction (Count)
system.cpu.committedInstType_0::SimdFloatDiv            0      0.00%     65.49% # Class of committed instruction (Count)
system.cpu.committedInstType_0::SimdFloatMisc            0      0.00%     65.49% # Class of committed instruction (Count)
system.cpu.committedInstType_0::SimdFloatMult            0      0.00%     65.49% # Class of committed instruction (Count)
system.cpu.committedInstType_0::SimdFloatMultAcc            0      0.00%     65.49% # Class of committed instruction (Count)
system.cpu.committedInstType_0::SimdFloatSqrt            0      0.00%     65.49% # Class of committed instruction (Count)
system.cpu.committedInstType_0::SimdReduceAdd            0      0.00%     65.49% # Class of committed instruction (Count)
system.cpu.committedInstType_0::SimdReduceAlu            0      0.00%     65.49% # Class of committed instruction (Count)
system.cpu.committedInstType_0::SimdReduceCmp            0      0.00%     65.49% # Class of committed instruction (Count)
system.cpu.committedInstType_0::SimdFloatReduceAdd            0      0.00%     65.49% # Class of committed instruction (Count)
system.cpu.committedInstType_0::SimdFloatReduceCmp            0      0.00%     65.49% # Class of committed instruction (Count)
system.cpu.committedInstType_0::SimdAes             0      0.00%     65.49% # Class of committed instruction (Count)
system.cpu.committedInstType_0::SimdAesMix            0      0.00%     65.49% # Class of committed instruction (Count)
system.cpu.committedInstType_0::SimdSha1Hash            0      0.00%     65.49% # Class of committed instruction (Count)
system.cpu.committedInstType_0::SimdSha1Hash2            0      0.00%     65.49% # Class of committed instruction (Count)
system.cpu.committedInstType_0::SimdSha256Hash            0      0.00%     65.49% # Class of committed instruction (Count)
system.cpu.committedInstType_0::SimdSha256Hash2            0      0.00%     65.49% # Class of committed instruction (Count)
system.cpu.committedInstType_0::SimdShaSigma2            0      0.00%     65.49% # Class of committed instruction (Count)
system.cpu.committedInstType_0::SimdShaSigma3            0      0.00%     65.49% # Class of committed instruction (Count)
system.cpu.committedInstType_0::SimdPredAlu            0      0.00%     65.49% # Class of committed instruction (Count)
system.cpu.committedInstType_0::MemRead      21507035     21.26%     86.75% # Class of committed instruction (Count)
system.cpu.committedInstType_0::MemWrite     13409816     13.25%    100.00% # Class of committed instruction (Count)
system.cpu.committedInstType_0::FloatMemRead            0      0.00%    100.00% # Class of committed instruction (Count)
system.cpu.committedInstType_0::FloatMemWrite            0      0.00%    100.00% # Class of committed instruction (Count)
system.cpu.committedInstType_0::IprAccess            0      0.00%    100.00% # Class of committed instruction (Count)
system.cpu.committedInstType_0::InstPrefetch            0      0.00%    100.00% # Class of committed instruction (Count)
system.cpu.committedInstType_0::total       101168649                       # Class of committed instruction (Count)
system.cpu.branchPred.lookups                16815636                       # Number of BP lookups (Count)
system.cpu.branchPred.condPredicted          15378907                       # Number of conditional branches predicted (Count)
system.cpu.branchPred.condIncorrect            464057                       # Number of conditional branches incorrect (Count)
system.cpu.branchPred.BTBLookups             13350694                       # Number of BTB lookups (Count)
system.cpu.branchPred.BTBHits                13224564                       # Number of BTB hits (Count)
system.cpu.branchPred.BTBHitRatio            0.990553                       # BTB Hit Ratio (Ratio)
system.cpu.branchPred.RASUsed                  341903                       # Number of times the RAS was used to get a target. (Count)
system.cpu.branchPred.RASIncorrect                 32                       # Number of incorrect RAS predictions. (Count)
system.cpu.branchPred.indirectLookups           41408                       # Number of indirect predictor lookups. (Count)
system.cpu.branchPred.indirectHits              40489                       # Number of indirect target hits. (Count)
system.cpu.branchPred.indirectMisses              919                       # Number of indirect misses. (Count)
system.cpu.branchPred.indirectMispredicted         6158                       # Number of mispredicted indirect branches. (Count)
system.cpu.dcache.demandHits::cpu.data       25438693                       # number of demand (read+write) hits (Count)
system.cpu.dcache.demandHits::total          25438693                       # number of demand (read+write) hits (Count)
system.cpu.dcache.overallHits::cpu.data      25438693                       # number of overall hits (Count)
system.cpu.dcache.overallHits::total         25438693                       # number of overall hits (Count)
system.cpu.dcache.demandMisses::cpu.data      8797046                       # number of demand (read+write) misses (Count)
system.cpu.dcache.demandMisses::total         8797046                       # number of demand (read+write) misses (Count)
system.cpu.dcache.overallMisses::cpu.data      8797046                       # number of overall misses (Count)
system.cpu.dcache.overallMisses::total        8797046                       # number of overall misses (Count)
system.cpu.dcache.demandMissLatency::cpu.data 280942848500                       # number of demand (read+write) miss ticks (Tick)
system.cpu.dcache.demandMissLatency::total 280942848500                       # number of demand (read+write) miss ticks (Tick)
system.cpu.dcache.overallMissLatency::cpu.data 280942848500                       # number of overall miss ticks (Tick)
system.cpu.dcache.overallMissLatency::total 280942848500                       # number of overall miss ticks (Tick)
system.cpu.dcache.demandAccesses::cpu.data     34235739                       # number of demand (read+write) accesses (Count)
system.cpu.dcache.demandAccesses::total      34235739                       # number of demand (read+write) accesses (Count)
system.cpu.dcache.overallAccesses::cpu.data     34235739                       # number of overall (read+write) accesses (Count)
system.cpu.dcache.overallAccesses::total     34235739                       # number of overall (read+write) accesses (Count)
system.cpu.dcache.demandMissRate::cpu.data     0.256955                       # miss rate for demand accesses (Ratio)
system.cpu.dcache.demandMissRate::total      0.256955                       # miss rate for demand accesses (Ratio)
system.cpu.dcache.overallMissRate::cpu.data     0.256955                       # miss rate for overall accesses (Ratio)
system.cpu.dcache.overallMissRate::total     0.256955                       # miss rate for overall accesses (Ratio)
system.cpu.dcache.demandAvgMissLatency::cpu.data 31936.044043                       # average overall miss latency in ticks ((Tick/Count))
system.cpu.dcache.demandAvgMissLatency::total 31936.044043                       # average overall miss latency in ticks ((Tick/Count))
system.cpu.dcache.overallAvgMissLatency::cpu.data 31936.044043                       # average overall miss latency ((Tick/Count))
system.cpu.dcache.overallAvgMissLatency::total 31936.044043                       # average overall miss latency ((Tick/Count))
system.cpu.dcache.blockedCycles::no_mshrs            0                       # number of cycles access was blocked (Cycle)
system.cpu.dcache.blockedCycles::no_targets            0                       # number of cycles access was blocked (Cycle)
system.cpu.dcache.blockedCauses::no_mshrs            0                       # number of times access was blocked (Count)
system.cpu.dcache.blockedCauses::no_targets            0                       # number of times access was blocked (Count)
system.cpu.dcache.avgBlocked::no_mshrs            nan                       # average number of cycles each access was blocked ((Cycle/Count))
system.cpu.dcache.avgBlocked::no_targets          nan                       # average number of cycles each access was blocked ((Cycle/Count))
system.cpu.dcache.writebacks::writebacks      4369957                       # number of writebacks (Count)
system.cpu.dcache.writebacks::total           4369957                       # number of writebacks (Count)
system.cpu.dcache.demandMshrHits::cpu.data      4193027                       # number of demand (read+write) MSHR hits (Count)
system.cpu.dcache.demandMshrHits::total       4193027                       # number of demand (read+write) MSHR hits (Count)
system.cpu.dcache.overallMshrHits::cpu.data      4193027                       # number of overall MSHR hits (Count)
system.cpu.dcache.overallMshrHits::total      4193027                       # number of overall MSHR hits (Count)
system.cpu.dcache.demandMshrMisses::cpu.data      4604019                       # number of demand (read+write) MSHR misses (Count)
system.cpu.dcache.demandMshrMisses::total      4604019                       # number of demand (read+write) MSHR misses (Count)
system.cpu.dcache.overallMshrMisses::cpu.data      4604019                       # number of overall MSHR misses (Count)
system.cpu.dcache.overallMshrMisses::total      4604019                       # number of overall MSHR misses (Count)
system.cpu.dcache.demandMshrMissLatency::cpu.data 139751292500                       # number of demand (read+write) MSHR miss ticks (Tick)
system.cpu.dcache.demandMshrMissLatency::total 139751292500                       # number of demand (read+write) MSHR miss ticks (Tick)
system.cpu.dcache.overallMshrMissLatency::cpu.data 139751292500                       # number of overall MSHR miss ticks (Tick)
system.cpu.dcache.overallMshrMissLatency::total 139751292500                       # number of overall MSHR miss ticks (Tick)
system.cpu.dcache.demandMshrMissRate::cpu.data     0.134480                       # mshr miss ratio for demand accesses (Ratio)
system.cpu.dcache.demandMshrMissRate::total     0.134480                       # mshr miss ratio for demand accesses (Ratio)
system.cpu.dcache.overallMshrMissRate::cpu.data     0.134480                       # mshr miss ratio for overall accesses (Ratio)
system.cpu.dcache.overallMshrMissRate::total     0.134480                       # mshr miss ratio for overall accesses (Ratio)
system.cpu.dcache.demandAvgMshrMissLatency::cpu.data 30354.195432                       # average overall mshr miss latency ((Tick/Count))
system.cpu.dcache.demandAvgMshrMissLatency::total 30354.195432                       # average overall mshr miss latency ((Tick/Count))
system.cpu.dcache.overallAvgMshrMissLatency::cpu.data 30354.195432                       # average overall mshr miss latency ((Tick/Count))
system.cpu.dcache.overallAvgMshrMissLatency::total 30354.195432                       # average overall mshr miss latency ((Tick/Count))
system.cpu.dcache.replacements                4603956                       # number of replacements (Count)
system.cpu.dcache.LoadLockedReq.hits::cpu.data            3                       # number of LoadLockedReq hits (Count)
system.cpu.dcache.LoadLockedReq.hits::total            3                       # number of LoadLockedReq hits (Count)
system.cpu.dcache.LoadLockedReq.misses::cpu.data            1                       # number of LoadLockedReq misses (Count)
system.cpu.dcache.LoadLockedReq.misses::total            1                       # number of LoadLockedReq misses (Count)
system.cpu.dcache.LoadLockedReq.missLatency::cpu.data        91500                       # number of LoadLockedReq miss ticks (Tick)
system.cpu.dcache.LoadLockedReq.missLatency::total        91500                       # number of LoadLockedReq miss ticks (Tick)
system.cpu.dcache.LoadLockedReq.accesses::cpu.data            4                       # number of LoadLockedReq accesses(hits+misses) (Count)
system.cpu.dcache.LoadLockedReq.accesses::total            4                       # number of LoadLockedReq accesses(hits+misses) (Count)
system.cpu.dcache.LoadLockedReq.missRate::cpu.data     0.250000                       # miss rate for LoadLockedReq accesses (Ratio)
system.cpu.dcache.LoadLockedReq.missRate::total     0.250000                       # miss rate for LoadLockedReq accesses (Ratio)
system.cpu.dcache.LoadLockedReq.avgMissLatency::cpu.data        91500                       # average LoadLockedReq miss latency ((Tick/Count))
system.cpu.dcache.LoadLockedReq.avgMissLatency::total        91500                       # average LoadLockedReq miss latency ((Tick/Count))
system.cpu.dcache.LoadLockedReq.mshrMisses::cpu.data            1                       # number of LoadLockedReq MSHR misses (Count)
system.cpu.dcache.LoadLockedReq.mshrMisses::total            1                       # number of LoadLockedReq MSHR misses (Count)
system.cpu.dcache.LoadLockedReq.mshrMissLatency::cpu.data        90500                       # number of LoadLockedReq MSHR miss ticks (Tick)
system.cpu.dcache.LoadLockedReq.mshrMissLatency::total        90500                       # number of LoadLockedReq MSHR miss ticks (Tick)
system.cpu.dcache.LoadLockedReq.mshrMissRate::cpu.data     0.250000                       # mshr miss rate for LoadLockedReq accesses (Ratio)
system.cpu.dcache.LoadLockedReq.mshrMissRate::total     0.250000                       # mshr miss rate for LoadLockedReq accesses (Ratio)
system.cpu.dcache.LoadLockedReq.avgMshrMissLatency::cpu.data        90500                       # average LoadLockedReq mshr miss latency ((Tick/Count))
system.cpu.dcache.LoadLockedReq.avgMshrMissLatency::total        90500                       # average LoadLockedReq mshr miss latency ((Tick/Count))
system.cpu.dcache.ReadReq.hits::cpu.data     20507398                       # number of ReadReq hits (Count)
system.cpu.dcache.ReadReq.hits::total        20507398                       # number of ReadReq hits (Count)
system.cpu.dcache.ReadReq.misses::cpu.data       362808                       # number of ReadReq misses (Count)
system.cpu.dcache.ReadReq.misses::total        362808                       # number of ReadReq misses (Count)
system.cpu.dcache.ReadReq.missLatency::cpu.data   6698847500                       # number of ReadReq miss ticks (Tick)
system.cpu.dcache.ReadReq.missLatency::total   6698847500                       # number of ReadReq miss ticks (Tick)
system.cpu.dcache.ReadReq.accesses::cpu.data     20870206                       # number of ReadReq accesses(hits+misses) (Count)
system.cpu.dcache.ReadReq.accesses::total     20870206                       # number of ReadReq accesses(hits+misses) (Count)
system.cpu.dcache.ReadReq.missRate::cpu.data     0.017384                       # miss rate for ReadReq accesses (Ratio)
system.cpu.dcache.ReadReq.missRate::total     0.017384                       # miss rate for ReadReq accesses (Ratio)
system.cpu.dcache.ReadReq.avgMissLatency::cpu.data 18463.891370                       # average ReadReq miss latency ((Tick/Count))
system.cpu.dcache.ReadReq.avgMissLatency::total 18463.891370                       # average ReadReq miss latency ((Tick/Count))
system.cpu.dcache.ReadReq.mshrHits::cpu.data         2543                       # number of ReadReq MSHR hits (Count)
system.cpu.dcache.ReadReq.mshrHits::total         2543                       # number of ReadReq MSHR hits (Count)
system.cpu.dcache.ReadReq.mshrMisses::cpu.data       360265                       # number of ReadReq MSHR misses (Count)
system.cpu.dcache.ReadReq.mshrMisses::total       360265                       # number of ReadReq MSHR misses (Count)
system.cpu.dcache.ReadReq.mshrMissLatency::cpu.data   6300501000                       # number of ReadReq MSHR miss ticks (Tick)
system.cpu.dcache.ReadReq.mshrMissLatency::total   6300501000                       # number of ReadReq MSHR miss ticks (Tick)
system.cpu.dcache.ReadReq.mshrMissRate::cpu.data     0.017262                       # mshr miss rate for ReadReq accesses (Ratio)
system.cpu.dcache.ReadReq.mshrMissRate::total     0.017262                       # mshr miss rate for ReadReq accesses (Ratio)
system.cpu.dcache.ReadReq.avgMshrMissLatency::cpu.data 17488.518174                       # average ReadReq mshr miss latency ((Tick/Count))
system.cpu.dcache.ReadReq.avgMshrMissLatency::total 17488.518174                       # average ReadReq mshr miss latency ((Tick/Count))
system.cpu.dcache.StoreCondReq.hits::cpu.data            4                       # number of StoreCondReq hits (Count)
system.cpu.dcache.StoreCondReq.hits::total            4                       # number of StoreCondReq hits (Count)
system.cpu.dcache.StoreCondReq.accesses::cpu.data            4                       # number of StoreCondReq accesses(hits+misses) (Count)
system.cpu.dcache.StoreCondReq.accesses::total            4                       # number of StoreCondReq accesses(hits+misses) (Count)
system.cpu.dcache.SwapReq.hits::cpu.data          310                       # number of SwapReq hits (Count)
system.cpu.dcache.SwapReq.hits::total             310                       # number of SwapReq hits (Count)
system.cpu.dcache.SwapReq.accesses::cpu.data          310                       # number of SwapReq accesses(hits+misses) (Count)
system.cpu.dcache.SwapReq.accesses::total          310                       # number of SwapReq accesses(hits+misses) (Count)
system.cpu.dcache.WriteReq.hits::cpu.data      4931295                       # number of WriteReq hits (Count)
system.cpu.dcache.WriteReq.hits::total        4931295                       # number of WriteReq hits (Count)
system.cpu.dcache.WriteReq.misses::cpu.data      8434238                       # number of WriteReq misses (Count)
system.cpu.dcache.WriteReq.misses::total      8434238                       # number of WriteReq misses (Count)
system.cpu.dcache.WriteReq.missLatency::cpu.data 274244001000                       # number of WriteReq miss ticks (Tick)
system.cpu.dcache.WriteReq.missLatency::total 274244001000                       # number of WriteReq miss ticks (Tick)
system.cpu.dcache.WriteReq.accesses::cpu.data     13365533                       # number of WriteReq accesses(hits+misses) (Count)
system.cpu.dcache.WriteReq.accesses::total     13365533                       # number of WriteReq accesses(hits+misses) (Count)
system.cpu.dcache.WriteReq.missRate::cpu.data     0.631044                       # miss rate for WriteReq accesses (Ratio)
system.cpu.dcache.WriteReq.missRate::total     0.631044                       # miss rate for WriteReq accesses (Ratio)
system.cpu.dcache.WriteReq.avgMissLatency::cpu.data 32515.563469                       # average WriteReq miss latency ((Tick/Count))
system.cpu.dcache.WriteReq.avgMissLatency::total 32515.563469                       # average WriteReq miss latency ((Tick/Count))
system.cpu.dcache.WriteReq.mshrHits::cpu.data      4190484                       # number of WriteReq MSHR hits (Count)
system.cpu.dcache.WriteReq.mshrHits::total      4190484                       # number of WriteReq MSHR hits (Count)
system.cpu.dcache.WriteReq.mshrMisses::cpu.data      4243754                       # number of WriteReq MSHR misses (Count)
system.cpu.dcache.WriteReq.mshrMisses::total      4243754                       # number of WriteReq MSHR misses (Count)
system.cpu.dcache.WriteReq.mshrMissLatency::cpu.data 133450791500                       # number of WriteReq MSHR miss ticks (Tick)
system.cpu.dcache.WriteReq.mshrMissLatency::total 133450791500                       # number of WriteReq MSHR miss ticks (Tick)
system.cpu.dcache.WriteReq.mshrMissRate::cpu.data     0.317515                       # mshr miss rate for WriteReq accesses (Ratio)
system.cpu.dcache.WriteReq.mshrMissRate::total     0.317515                       # mshr miss rate for WriteReq accesses (Ratio)
system.cpu.dcache.WriteReq.avgMshrMissLatency::cpu.data 31446.401347                       # average WriteReq mshr miss latency ((Tick/Count))
system.cpu.dcache.WriteReq.avgMshrMissLatency::total 31446.401347                       # average WriteReq mshr miss latency ((Tick/Count))
system.cpu.dcache.power_state.pwrStateResidencyTicks::UNDEFINED 189919693000                       # Cumulative time (in ticks) in various power states (Tick)
system.cpu.dcache.tags.tagsInUse            63.997734                       # Average ticks per tags in use ((Tick/Count))
system.cpu.dcache.tags.totalRefs             30043030                       # Total number of references to valid blocks. (Count)
system.cpu.dcache.tags.sampledRefs            4604020                       # Sample count of references to valid blocks. (Count)
system.cpu.dcache.tags.avgRefs               6.525391                       # Average number of references to valid blocks. ((Count/Count))
system.cpu.dcache.tags.warmupTick              187500                       # The tick when the warmup percentage was hit. (Tick)
system.cpu.dcache.tags.occupancies::cpu.data    63.997734                       # Average occupied blocks per tick, per requestor ((Count/Tick))
system.cpu.dcache.tags.avgOccs::cpu.data     0.999965                       # Average percentage of cache occupancy ((Ratio/Tick))
system.cpu.dcache.tags.avgOccs::total        0.999965                       # Average percentage of cache occupancy ((Ratio/Tick))
system.cpu.dcache.tags.occupanciesTaskId::1024           64                       # Occupied blocks per task id (Count)
system.cpu.dcache.tags.ageTaskId_1024::0           45                       # Occupied blocks per task id, per block age (Count)
system.cpu.dcache.tags.ageTaskId_1024::1           16                       # Occupied blocks per task id, per block age (Count)
system.cpu.dcache.tags.ageTaskId_1024::2            2                       # Occupied blocks per task id, per block age (Count)
system.cpu.dcache.tags.ageTaskId_1024::4            1                       # Occupied blocks per task id, per block age (Count)
system.cpu.dcache.tags.ratioOccsTaskId::1024            1                       # Ratio of occupied blocks and all blocks, per task id (Ratio)
system.cpu.dcache.tags.tagAccesses          141548248                       # Number of tag accesses (Count)
system.cpu.dcache.tags.dataAccesses         141548248                       # Number of data accesses (Count)
system.cpu.dcache.tags.power_state.pwrStateResidencyTicks::UNDEFINED 189919693000                       # Cumulative time (in ticks) in various power states (Tick)
system.cpu.fetch2.intInstructions            53681960                       # Number of integer instructions successfully decoded (Count)
system.cpu.fetch2.fpInstructions                    0                       # Number of floating point instructions successfully decoded (Count)
system.cpu.fetch2.vecInstructions               10253                       # Number of SIMD instructions successfully decoded (Count)
system.cpu.fetch2.loadInstructions           23112463                       # Number of memory load instructions successfully decoded (Count)
system.cpu.fetch2.storeInstructions          13304058                       # Number of memory store instructions successfully decoded (Count)
system.cpu.fetch2.amoInstructions                 325                       # Number of memory atomic instructions successfully decoded (Count)
system.cpu.icache.demandHits::cpu.inst       36463065                       # number of demand (read+write) hits (Count)
system.cpu.icache.demandHits::total          36463065                       # number of demand (read+write) hits (Count)
system.cpu.icache.overallHits::cpu.inst      36463065                       # number of overall hits (Count)
system.cpu.icache.overallHits::total         36463065                       # number of overall hits (Count)
system.cpu.icache.demandMisses::cpu.inst       172859                       # number of demand (read+write) misses (Count)
system.cpu.icache.demandMisses::total          172859                       # number of demand (read+write) misses (Count)
system.cpu.icache.overallMisses::cpu.inst       172859                       # number of overall misses (Count)
system.cpu.icache.overallMisses::total         172859                       # number of overall misses (Count)
system.cpu.icache.demandMissLatency::cpu.inst   3333192000                       # number of demand (read+write) miss ticks (Tick)
system.cpu.icache.demandMissLatency::total   3333192000                       # number of demand (read+write) miss ticks (Tick)
system.cpu.icache.overallMissLatency::cpu.inst   3333192000                       # number of overall miss ticks (Tick)
system.cpu.icache.overallMissLatency::total   3333192000                       # number of overall miss ticks (Tick)
system.cpu.icache.demandAccesses::cpu.inst     36635924                       # number of demand (read+write) accesses (Count)
system.cpu.icache.demandAccesses::total      36635924                       # number of demand (read+write) accesses (Count)
system.cpu.icache.overallAccesses::cpu.inst     36635924                       # number of overall (read+write) accesses (Count)
system.cpu.icache.overallAccesses::total     36635924                       # number of overall (read+write) accesses (Count)
system.cpu.icache.demandMissRate::cpu.inst     0.004718                       # miss rate for demand accesses (Ratio)
system.cpu.icache.demandMissRate::total      0.004718                       # miss rate for demand accesses (Ratio)
system.cpu.icache.overallMissRate::cpu.inst     0.004718                       # miss rate for overall accesses (Ratio)
system.cpu.icache.overallMissRate::total     0.004718                       # miss rate for overall accesses (Ratio)
system.cpu.icache.demandAvgMissLatency::cpu.inst 19282.721756                       # average overall miss latency in ticks ((Tick/Count))
system.cpu.icache.demandAvgMissLatency::total 19282.721756                       # average overall miss latency in ticks ((Tick/Count))
system.cpu.icache.overallAvgMissLatency::cpu.inst 19282.721756                       # average overall miss latency ((Tick/Count))
system.cpu.icache.overallAvgMissLatency::total 19282.721756                       # average overall miss latency ((Tick/Count))
system.cpu.icache.blockedCycles::no_mshrs            0                       # number of cycles access was blocked (Cycle)
system.cpu.icache.blockedCycles::no_targets            0                       # number of cycles access was blocked (Cycle)
system.cpu.icache.blockedCauses::no_mshrs            0                       # number of times access was blocked (Count)
system.cpu.icache.blockedCauses::no_targets            0                       # number of times access was blocked (Count)
system.cpu.icache.avgBlocked::no_mshrs            nan                       # average number of cycles each access was blocked ((Cycle/Count))
system.cpu.icache.avgBlocked::no_targets          nan                       # average number of cycles each access was blocked ((Cycle/Count))
system.cpu.icache.writebacks::writebacks       172347                       # number of writebacks (Count)
system.cpu.icache.writebacks::total            172347                       # number of writebacks (Count)
system.cpu.icache.demandMshrMisses::cpu.inst       172859                       # number of demand (read+write) MSHR misses (Count)
system.cpu.icache.demandMshrMisses::total       172859                       # number of demand (read+write) MSHR misses (Count)
system.cpu.icache.overallMshrMisses::cpu.inst       172859                       # number of overall MSHR misses (Count)
system.cpu.icache.overallMshrMisses::total       172859                       # number of overall MSHR misses (Count)
system.cpu.icache.demandMshrMissLatency::cpu.inst   3160333000                       # number of demand (read+write) MSHR miss ticks (Tick)
system.cpu.icache.demandMshrMissLatency::total   3160333000                       # number of demand (read+write) MSHR miss ticks (Tick)
system.cpu.icache.overallMshrMissLatency::cpu.inst   3160333000                       # number of overall MSHR miss ticks (Tick)
system.cpu.icache.overallMshrMissLatency::total   3160333000                       # number of overall MSHR miss ticks (Tick)
system.cpu.icache.demandMshrMissRate::cpu.inst     0.004718                       # mshr miss ratio for demand accesses (Ratio)
system.cpu.icache.demandMshrMissRate::total     0.004718                       # mshr miss ratio for demand accesses (Ratio)
system.cpu.icache.overallMshrMissRate::cpu.inst     0.004718                       # mshr miss ratio for overall accesses (Ratio)
system.cpu.icache.overallMshrMissRate::total     0.004718                       # mshr miss ratio for overall accesses (Ratio)
system.cpu.icache.demandAvgMshrMissLatency::cpu.inst 18282.721756                       # average overall mshr miss latency ((Tick/Count))
system.cpu.icache.demandAvgMshrMissLatency::total 18282.721756                       # average overall mshr miss latency ((Tick/Count))
system.cpu.icache.overallAvgMshrMissLatency::cpu.inst 18282.721756                       # average overall mshr miss latency ((Tick/Count))
system.cpu.icache.overallAvgMshrMissLatency::total 18282.721756                       # average overall mshr miss latency ((Tick/Count))
system.cpu.icache.replacements                 172347                       # number of replacements (Count)
system.cpu.icache.ReadReq.hits::cpu.inst     36463065                       # number of ReadReq hits (Count)
system.cpu.icache.ReadReq.hits::total        36463065                       # number of ReadReq hits (Count)
system.cpu.icache.ReadReq.misses::cpu.inst       172859                       # number of ReadReq misses (Count)
system.cpu.icache.ReadReq.misses::total        172859                       # number of ReadReq misses (Count)
system.cpu.icache.ReadReq.missLatency::cpu.inst   3333192000                       # number of ReadReq miss ticks (Tick)
system.cpu.icache.ReadReq.missLatency::total   3333192000                       # number of ReadReq miss ticks (Tick)
system.cpu.icache.ReadReq.accesses::cpu.inst     36635924                       # number of ReadReq accesses(hits+misses) (Count)
system.cpu.icache.ReadReq.accesses::total     36635924                       # number of ReadReq accesses(hits+misses) (Count)
system.cpu.icache.ReadReq.missRate::cpu.inst     0.004718                       # miss rate for ReadReq accesses (Ratio)
system.cpu.icache.ReadReq.missRate::total     0.004718                       # miss rate for ReadReq accesses (Ratio)
system.cpu.icache.ReadReq.avgMissLatency::cpu.inst 19282.721756                       # average ReadReq miss latency ((Tick/Count))
system.cpu.icache.ReadReq.avgMissLatency::total 19282.721756                       # average ReadReq miss latency ((Tick/Count))
system.cpu.icache.ReadReq.mshrMisses::cpu.inst       172859                       # number of ReadReq MSHR misses (Count)
system.cpu.icache.ReadReq.mshrMisses::total       172859                       # number of ReadReq MSHR misses (Count)
system.cpu.icache.ReadReq.mshrMissLatency::cpu.inst   3160333000                       # number of ReadReq MSHR miss ticks (Tick)
system.cpu.icache.ReadReq.mshrMissLatency::total   3160333000                       # number of ReadReq MSHR miss ticks (Tick)
system.cpu.icache.ReadReq.mshrMissRate::cpu.inst     0.004718                       # mshr miss rate for ReadReq accesses (Ratio)
system.cpu.icache.ReadReq.mshrMissRate::total     0.004718                       # mshr miss rate for ReadReq accesses (Ratio)
system.cpu.icache.ReadReq.avgMshrMissLatency::cpu.inst 18282.721756                       # average ReadReq mshr miss latency ((Tick/Count))
system.cpu.icache.ReadReq.avgMshrMissLatency::total 18282.721756                       # average ReadReq mshr miss latency ((Tick/Count))
system.cpu.icache.power_state.pwrStateResidencyTicks::UNDEFINED 189919693000                       # Cumulative time (in ticks) in various power states (Tick)
system.cpu.icache.tags.tagsInUse           430.557945                       # Average ticks per tags in use ((Tick/Count))
system.cpu.icache.tags.totalRefs             36635924                       # Total number of references to valid blocks. (Count)
system.cpu.icache.tags.sampledRefs             172859                       # Sample count of references to valid blocks. (Count)
system.cpu.icache.tags.avgRefs             211.941085                       # Average number of references to valid blocks. ((Count/Count))
system.cpu.icache.tags.warmupTick               92500                       # The tick when the warmup percentage was hit. (Tick)
system.cpu.icache.tags.occupancies::cpu.inst   430.557945                       # Average occupied blocks per tick, per requestor ((Count/Tick))
system.cpu.icache.tags.avgOccs::cpu.inst     0.840933                       # Average percentage of cache occupancy ((Ratio/Tick))
system.cpu.icache.tags.avgOccs::total        0.840933                       # Average percentage of cache occupancy ((Ratio/Tick))
system.cpu.icache.tags.occupanciesTaskId::1024          512                       # Occupied blocks per task id (Count)
system.cpu.icache.tags.ageTaskId_1024::0           18                       # Occupied blocks per task id, per block age (Count)
system.cpu.icache.tags.ageTaskId_1024::1           89                       # Occupied blocks per task id, per block age (Count)
system.cpu.icache.tags.ageTaskId_1024::2          217                       # Occupied blocks per task id, per block age (Count)
system.cpu.icache.tags.ageTaskId_1024::3           18                       # Occupied blocks per task id, per block age (Count)
system.cpu.icache.tags.ageTaskId_1024::4          170                       # Occupied blocks per task id, per block age (Count)
system.cpu.icache.tags.ratioOccsTaskId::1024            1                       # Ratio of occupied blocks and all blocks, per task id (Ratio)
system.cpu.icache.tags.tagAccesses           73444707                       # Number of tag accesses (Count)
system.cpu.icache.tags.dataAccesses          73444707                       # Number of data accesses (Count)
system.cpu.icache.tags.power_state.pwrStateResidencyTicks::UNDEFINED 189919693000                       # Cumulative time (in ticks) in various power states (Tick)
system.cpu.mmu.alignFaults                          0                       # Number of MMU faults due to alignment restrictions (Count)
system.cpu.mmu.prefetchFaults                       0                       # Number of MMU faults due to prefetch (Count)
system.cpu.mmu.domainFaults                         0                       # Number of MMU faults due to domain restrictions (Count)
system.cpu.mmu.permsFaults                          0                       # Number of MMU faults due to permissions restrictions (Count)
system.cpu.mmu.dtb.readHits                         0                       # Read hits (Count)
system.cpu.mmu.dtb.readMisses                       0                       # Read misses (Count)
system.cpu.mmu.dtb.writeHits                        0                       # Write hits (Count)
system.cpu.mmu.dtb.writeMisses                      0                       # Write misses (Count)
system.cpu.mmu.dtb.inserts                          0                       # Number of times an entry is inserted into the TLB (Count)
system.cpu.mmu.dtb.flushTlb                         0                       # Number of times complete TLB was flushed (Count)
system.cpu.mmu.dtb.flushTlbMva                      0                       # Number of times TLB was flushed by MVA (Count)
system.cpu.mmu.dtb.flushTlbMvaAsid                  0                       # Number of times TLB was flushed by MVA & ASID (Count)
system.cpu.mmu.dtb.flushTlbAsid                     0                       # Number of times TLB was flushed by ASID (Count)
system.cpu.mmu.dtb.flushedEntries                   0                       # Number of entries that have been flushed from TLB (Count)
system.cpu.mmu.dtb.readAccesses                     0                       # Read accesses (Count)
system.cpu.mmu.dtb.writeAccesses                    0                       # Write accesses (Count)
system.cpu.mmu.dtb.hits                             0                       # Total TLB (inst and data) hits (Count)
system.cpu.mmu.dtb.misses                           0                       # Total TLB (inst and data) misses (Count)
system.cpu.mmu.dtb.accesses                         0                       # Total TLB (inst and data) accesses (Count)
system.cpu.mmu.dtb_walker.walks                     0                       # Table walker walks requested (Count)
system.cpu.mmu.dtb_walker.requestOrigin_Requested::Data            0                       # Table walker requests started/completed, data/inst (Count)
system.cpu.mmu.dtb_walker.requestOrigin_Requested::Inst            0                       # Table walker requests started/completed, data/inst (Count)
system.cpu.mmu.dtb_walker.requestOrigin_Requested::total            0                       # Table walker requests started/completed, data/inst (Count)
system.cpu.mmu.dtb_walker.requestOrigin_Completed::Data            0                       # Table walker requests started/completed, data/inst (Count)
system.cpu.mmu.dtb_walker.requestOrigin_Completed::Inst            0                       # Table walker requests started/completed, data/inst (Count)
system.cpu.mmu.dtb_walker.requestOrigin_Completed::total            0                       # Table walker requests started/completed, data/inst (Count)
system.cpu.mmu.dtb_walker.requestOrigin::total            0                       # Table walker requests started/completed, data/inst (Count)
system.cpu.mmu.dtb_walker.power_state.pwrStateResidencyTicks::UNDEFINED 189919693000                       # Cumulative time (in ticks) in various power states (Tick)
system.cpu.mmu.itb.instHits                         0                       # Inst hits (Count)
system.cpu.mmu.itb.instMisses                       0                       # Inst misses (Count)
system.cpu.mmu.itb.inserts                          0                       # Number of times an entry is inserted into the TLB (Count)
system.cpu.mmu.itb.flushTlb                         0                       # Number of times complete TLB was flushed (Count)
system.cpu.mmu.itb.flushTlbMva                      0                       # Number of times TLB was flushed by MVA (Count)
system.cpu.mmu.itb.flushTlbMvaAsid                  0                       # Number of times TLB was flushed by MVA & ASID (Count)
system.cpu.mmu.itb.flushTlbAsid                     0                       # Number of times TLB was flushed by ASID (Count)
system.cpu.mmu.itb.flushedEntries                   0                       # Number of entries that have been flushed from TLB (Count)
system.cpu.mmu.itb.instAccesses                     0                       # Inst accesses (Count)
system.cpu.mmu.itb.hits                             0                       # Total TLB (inst and data) hits (Count)
system.cpu.mmu.itb.misses                           0                       # Total TLB (inst and data) misses (Count)
system.cpu.mmu.itb.accesses                         0                       # Total TLB (inst and data) accesses (Count)
system.cpu.mmu.itb_walker.walks                     0                       # Table walker walks requested (Count)
system.cpu.mmu.itb_walker.requestOrigin_Requested::Data            0                       # Table walker requests started/completed, data/inst (Count)
system.cpu.mmu.itb_walker.requestOrigin_Requested::Inst            0                       # Table walker requests started/completed, data/inst (Count)
system.cpu.mmu.itb_walker.requestOrigin_Requested::total            0                       # Table walker requests started/completed, data/inst (Count)
system.cpu.mmu.itb_walker.requestOrigin_Completed::Data            0                       # Table walker requests started/completed, data/inst (Count)
system.cpu.mmu.itb_walker.requestOrigin_Completed::Inst            0                       # Table walker requests started/completed, data/inst (Count)
system.cpu.mmu.itb_walker.requestOrigin_Completed::total            0                       # Table walker requests started/completed, data/inst (Count)
system.cpu.mmu.itb_walker.requestOrigin::total            0                       # Table walker requests started/completed, data/inst (Count)
system.cpu.mmu.itb_walker.power_state.pwrStateResidencyTicks::UNDEFINED 189919693000                       # Cumulative time (in ticks) in various power states (Tick)
system.cpu.mmu.l2_shared.instHits                   0                       # Inst hits (Count)
system.cpu.mmu.l2_shared.instMisses                 0                       # Inst misses (Count)
system.cpu.mmu.l2_shared.inserts                    0                       # Number of times an entry is inserted into the TLB (Count)
system.cpu.mmu.l2_shared.flushTlb                   0                       # Number of times complete TLB was flushed (Count)
system.cpu.mmu.l2_shared.flushTlbMva                0                       # Number of times TLB was flushed by MVA (Count)
system.cpu.mmu.l2_shared.flushTlbMvaAsid            0                       # Number of times TLB was flushed by MVA & ASID (Count)
system.cpu.mmu.l2_shared.flushTlbAsid               0                       # Number of times TLB was flushed by ASID (Count)
system.cpu.mmu.l2_shared.flushedEntries             0                       # Number of entries that have been flushed from TLB (Count)
system.cpu.mmu.l2_shared.instAccesses               0                       # Inst accesses (Count)
system.cpu.mmu.l2_shared.hits                       0                       # Total TLB (inst and data) hits (Count)
system.cpu.mmu.l2_shared.misses                     0                       # Total TLB (inst and data) misses (Count)
system.cpu.mmu.l2_shared.accesses                   0                       # Total TLB (inst and data) accesses (Count)
system.cpu.mmu.stage2_dtb.readHits                  0                       # Read hits (Count)
system.cpu.mmu.stage2_dtb.readMisses                0                       # Read misses (Count)
system.cpu.mmu.stage2_dtb.writeHits                 0                       # Write hits (Count)
system.cpu.mmu.stage2_dtb.writeMisses               0                       # Write misses (Count)
system.cpu.mmu.stage2_dtb.inserts                   0                       # Number of times an entry is inserted into the TLB (Count)
system.cpu.mmu.stage2_dtb.flushTlb                  0                       # Number of times complete TLB was flushed (Count)
system.cpu.mmu.stage2_dtb.flushTlbMva               0                       # Number of times TLB was flushed by MVA (Count)
system.cpu.mmu.stage2_dtb.flushTlbMvaAsid            0                       # Number of times TLB was flushed by MVA & ASID (Count)
system.cpu.mmu.stage2_dtb.flushTlbAsid              0                       # Number of times TLB was flushed by ASID (Count)
system.cpu.mmu.stage2_dtb.flushedEntries            0                       # Number of entries that have been flushed from TLB (Count)
system.cpu.mmu.stage2_dtb.readAccesses              0                       # Read accesses (Count)
system.cpu.mmu.stage2_dtb.writeAccesses             0                       # Write accesses (Count)
system.cpu.mmu.stage2_dtb.hits                      0                       # Total TLB (inst and data) hits (Count)
system.cpu.mmu.stage2_dtb.misses                    0                       # Total TLB (inst and data) misses (Count)
system.cpu.mmu.stage2_dtb.accesses                  0                       # Total TLB (inst and data) accesses (Count)
system.cpu.mmu.stage2_dtb_walker.walks              0                       # Table walker walks requested (Count)
system.cpu.mmu.stage2_dtb_walker.requestOrigin_Requested::Data            0                       # Table walker requests started/completed, data/inst (Count)
system.cpu.mmu.stage2_dtb_walker.requestOrigin_Requested::Inst            0                       # Table walker requests started/completed, data/inst (Count)
system.cpu.mmu.stage2_dtb_walker.requestOrigin_Requested::total            0                       # Table walker requests started/completed, data/inst (Count)
system.cpu.mmu.stage2_dtb_walker.requestOrigin_Completed::Data            0                       # Table walker requests started/completed, data/inst (Count)
system.cpu.mmu.stage2_dtb_walker.requestOrigin_Completed::Inst            0                       # Table walker requests started/completed, data/inst (Count)
system.cpu.mmu.stage2_dtb_walker.requestOrigin_Completed::total            0                       # Table walker requests started/completed, data/inst (Count)
system.cpu.mmu.stage2_dtb_walker.requestOrigin::total            0                       # Table walker requests started/completed, data/inst (Count)
system.cpu.mmu.stage2_dtb_walker.power_state.pwrStateResidencyTicks::UNDEFINED 189919693000                       # Cumulative time (in ticks) in various power states (Tick)
system.cpu.mmu.stage2_itb.instHits                  0                       # Inst hits (Count)
system.cpu.mmu.stage2_itb.instMisses                0                       # Inst misses (Count)
system.cpu.mmu.stage2_itb.inserts                   0                       # Number of times an entry is inserted into the TLB (Count)
system.cpu.mmu.stage2_itb.flushTlb                  0                       # Number of times complete TLB was flushed (Count)
system.cpu.mmu.stage2_itb.flushTlbMva               0                       # Number of times TLB was flushed by MVA (Count)
system.cpu.mmu.stage2_itb.flushTlbMvaAsid            0                       # Number of times TLB was flushed by MVA & ASID (Count)
system.cpu.mmu.stage2_itb.flushTlbAsid              0                       # Number of times TLB was flushed by ASID (Count)
system.cpu.mmu.stage2_itb.flushedEntries            0                       # Number of entries that have been flushed from TLB (Count)
system.cpu.mmu.stage2_itb.instAccesses              0                       # Inst accesses (Count)
system.cpu.mmu.stage2_itb.hits                      0                       # Total TLB (inst and data) hits (Count)
system.cpu.mmu.stage2_itb.misses                    0                       # Total TLB (inst and data) misses (Count)
system.cpu.mmu.stage2_itb.accesses                  0                       # Total TLB (inst and data) accesses (Count)
system.cpu.mmu.stage2_itb_walker.walks              0                       # Table walker walks requested (Count)
system.cpu.mmu.stage2_itb_walker.requestOrigin_Requested::Data            0                       # Table walker requests started/completed, data/inst (Count)
system.cpu.mmu.stage2_itb_walker.requestOrigin_Requested::Inst            0                       # Table walker requests started/completed, data/inst (Count)
system.cpu.mmu.stage2_itb_walker.requestOrigin_Requested::total            0                       # Table walker requests started/completed, data/inst (Count)
system.cpu.mmu.stage2_itb_walker.requestOrigin_Completed::Data            0                       # Table walker requests started/completed, data/inst (Count)
system.cpu.mmu.stage2_itb_walker.requestOrigin_Completed::Inst            0                       # Table walker requests started/completed, data/inst (Count)
system.cpu.mmu.stage2_itb_walker.requestOrigin_Completed::total            0                       # Table walker requests started/completed, data/inst (Count)
system.cpu.mmu.stage2_itb_walker.requestOrigin::total            0                       # Table walker requests started/completed, data/inst (Count)
system.cpu.mmu.stage2_itb_walker.power_state.pwrStateResidencyTicks::UNDEFINED 189919693000                       # Cumulative time (in ticks) in various power states (Tick)
system.cpu.power_state.pwrStateResidencyTicks::ON 189919693000                       # Cumulative time (in ticks) in various power states (Tick)
system.cpu.thread_0.numInsts                100000000                       # Number of Instructions committed (Count)
system.cpu.thread_0.numOps                  101168649                       # Number of Ops committed (Count)
system.cpu.thread_0.numMemRefs                      0                       # Number of Memory References (Count)
system.cpu.workload.numSyscalls                   157                       # Number of system calls (Count)
system.cpu_clk_domain.clock                       500                       # Clock period in ticks (Tick)
system.cpu_voltage_domain.voltage                   1                       # Voltage in Volts (Volt)
system.l2.demandHits::cpu.inst                 159770                       # number of demand (read+write) hits (Count)
system.l2.demandHits::cpu.data                 426923                       # number of demand (read+write) hits (Count)
system.l2.demandHits::total                    586693                       # number of demand (read+write) hits (Count)
system.l2.overallHits::cpu.inst                159770                       # number of overall hits (Count)
system.l2.overallHits::cpu.data                426923                       # number of overall hits (Count)
system.l2.overallHits::total                   586693                       # number of overall hits (Count)
system.l2.demandMisses::cpu.inst                13089                       # number of demand (read+write) misses (Count)
system.l2.demandMisses::cpu.data                51280                       # number of demand (read+write) misses (Count)
system.l2.demandMisses::total                   64369                       # number of demand (read+write) misses (Count)
system.l2.overallMisses::cpu.inst               13089                       # number of overall misses (Count)
system.l2.overallMisses::cpu.data               51280                       # number of overall misses (Count)
system.l2.overallMisses::total                  64369                       # number of overall misses (Count)
system.l2.demandMissLatency::cpu.inst      1187142000                       # number of demand (read+write) miss ticks (Tick)
system.l2.demandMissLatency::cpu.data      4464140500                       # number of demand (read+write) miss ticks (Tick)
system.l2.demandMissLatency::total         5651282500                       # number of demand (read+write) miss ticks (Tick)
system.l2.overallMissLatency::cpu.inst     1187142000                       # number of overall miss ticks (Tick)
system.l2.overallMissLatency::cpu.data     4464140500                       # number of overall miss ticks (Tick)
system.l2.overallMissLatency::total        5651282500                       # number of overall miss ticks (Tick)
system.l2.demandAccesses::cpu.inst             172859                       # number of demand (read+write) accesses (Count)
system.l2.demandAccesses::cpu.data             478203                       # number of demand (read+write) accesses (Count)
system.l2.demandAccesses::total                651062                       # number of demand (read+write) accesses (Count)
system.l2.overallAccesses::cpu.inst            172859                       # number of overall (read+write) accesses (Count)
system.l2.overallAccesses::cpu.data            478203                       # number of overall (read+write) accesses (Count)
system.l2.overallAccesses::total               651062                       # number of overall (read+write) accesses (Count)
system.l2.demandMissRate::cpu.inst           0.075721                       # miss rate for demand accesses (Ratio)
system.l2.demandMissRate::cpu.data           0.107235                       # miss rate for demand accesses (Ratio)
system.l2.demandMissRate::total              0.098868                       # miss rate for demand accesses (Ratio)
system.l2.overallMissRate::cpu.inst          0.075721                       # miss rate for overall accesses (Ratio)
system.l2.overallMissRate::cpu.data          0.107235                       # miss rate for overall accesses (Ratio)
system.l2.overallMissRate::total             0.098868                       # miss rate for overall accesses (Ratio)
system.l2.demandAvgMissLatency::cpu.inst 90697.685079                       # average overall miss latency in ticks ((Tick/Count))
system.l2.demandAvgMissLatency::cpu.data 87054.221919                       # average overall miss latency in ticks ((Tick/Count))
system.l2.demandAvgMissLatency::total    87795.095465                       # average overall miss latency in ticks ((Tick/Count))
system.l2.overallAvgMissLatency::cpu.inst 90697.685079                       # average overall miss latency ((Tick/Count))
system.l2.overallAvgMissLatency::cpu.data 87054.221919                       # average overall miss latency ((Tick/Count))
system.l2.overallAvgMissLatency::total   87795.095465                       # average overall miss latency ((Tick/Count))
system.l2.blockedCycles::no_mshrs                   0                       # number of cycles access was blocked (Cycle)
system.l2.blockedCycles::no_targets                 0                       # number of cycles access was blocked (Cycle)
system.l2.blockedCauses::no_mshrs                   0                       # number of times access was blocked (Count)
system.l2.blockedCauses::no_targets                 0                       # number of times access was blocked (Count)
system.l2.avgBlocked::no_mshrs                    nan                       # average number of cycles each access was blocked ((Cycle/Count))
system.l2.avgBlocked::no_targets                  nan                       # average number of cycles each access was blocked ((Cycle/Count))
system.l2.writebacks::writebacks              4159825                       # number of writebacks (Count)
system.l2.writebacks::total                   4159825                       # number of writebacks (Count)
system.l2.demandMshrMisses::cpu.inst            13089                       # number of demand (read+write) MSHR misses (Count)
system.l2.demandMshrMisses::cpu.data            51280                       # number of demand (read+write) MSHR misses (Count)
system.l2.demandMshrMisses::total               64369                       # number of demand (read+write) MSHR misses (Count)
system.l2.overallMshrMisses::cpu.inst           13089                       # number of overall MSHR misses (Count)
system.l2.overallMshrMisses::cpu.data           51280                       # number of overall MSHR misses (Count)
system.l2.overallMshrMisses::total              64369                       # number of overall MSHR misses (Count)
system.l2.demandMshrMissLatency::cpu.inst   1056252000                       # number of demand (read+write) MSHR miss ticks (Tick)
system.l2.demandMshrMissLatency::cpu.data   3951340500                       # number of demand (read+write) MSHR miss ticks (Tick)
system.l2.demandMshrMissLatency::total     5007592500                       # number of demand (read+write) MSHR miss ticks (Tick)
system.l2.overallMshrMissLatency::cpu.inst   1056252000                       # number of overall MSHR miss ticks (Tick)
system.l2.overallMshrMissLatency::cpu.data   3951340500                       # number of overall MSHR miss ticks (Tick)
system.l2.overallMshrMissLatency::total    5007592500                       # number of overall MSHR miss ticks (Tick)
system.l2.demandMshrMissRate::cpu.inst       0.075721                       # mshr miss ratio for demand accesses (Ratio)
system.l2.demandMshrMissRate::cpu.data       0.107235                       # mshr miss ratio for demand accesses (Ratio)
system.l2.demandMshrMissRate::total          0.098868                       # mshr miss ratio for demand accesses (Ratio)
system.l2.overallMshrMissRate::cpu.inst      0.075721                       # mshr miss ratio for overall accesses (Ratio)
system.l2.overallMshrMissRate::cpu.data      0.107235                       # mshr miss ratio for overall accesses (Ratio)
system.l2.overallMshrMissRate::total         0.098868                       # mshr miss ratio for overall accesses (Ratio)
system.l2.demandAvgMshrMissLatency::cpu.inst 80697.685079                       # average overall mshr miss latency ((Tick/Count))
system.l2.demandAvgMshrMissLatency::cpu.data 77054.221919                       # average overall mshr miss latency ((Tick/Count))
system.l2.demandAvgMshrMissLatency::total 77795.095465                       # average overall mshr miss latency ((Tick/Count))
system.l2.overallAvgMshrMissLatency::cpu.inst 80697.685079                       # average overall mshr miss latency ((Tick/Count))
system.l2.overallAvgMshrMissLatency::cpu.data 77054.221919                       # average overall mshr miss latency ((Tick/Count))
system.l2.overallAvgMshrMissLatency::total 77795.095465                       # average overall mshr miss latency ((Tick/Count))
system.l2.replacements                        4217940                       # number of replacements (Count)
system.l2.CleanEvict.mshrMisses::writebacks         4680                       # number of CleanEvict MSHR misses (Count)
system.l2.CleanEvict.mshrMisses::total           4680                       # number of CleanEvict MSHR misses (Count)
system.l2.CleanEvict.mshrMissRate::writebacks          inf                       # mshr miss rate for CleanEvict accesses (Ratio)
system.l2.CleanEvict.mshrMissRate::total          inf                       # mshr miss rate for CleanEvict accesses (Ratio)
system.l2.InvalidateReq.hits::cpu.data              1                       # number of InvalidateReq hits (Count)
system.l2.InvalidateReq.hits::total                 1                       # number of InvalidateReq hits (Count)
system.l2.InvalidateReq.misses::cpu.data      4125816                       # number of InvalidateReq misses (Count)
system.l2.InvalidateReq.misses::total         4125816                       # number of InvalidateReq misses (Count)
system.l2.InvalidateReq.accesses::cpu.data      4125817                       # number of InvalidateReq accesses(hits+misses) (Count)
system.l2.InvalidateReq.accesses::total       4125817                       # number of InvalidateReq accesses(hits+misses) (Count)
system.l2.InvalidateReq.missRate::cpu.data     1.000000                       # miss rate for InvalidateReq accesses (Ratio)
system.l2.InvalidateReq.missRate::total      1.000000                       # miss rate for InvalidateReq accesses (Ratio)
system.l2.InvalidateReq.mshrMisses::cpu.data      4125816                       # number of InvalidateReq MSHR misses (Count)
system.l2.InvalidateReq.mshrMisses::total      4125816                       # number of InvalidateReq MSHR misses (Count)
system.l2.InvalidateReq.mshrMissLatency::cpu.data  78390511000                       # number of InvalidateReq MSHR miss ticks (Tick)
system.l2.InvalidateReq.mshrMissLatency::total  78390511000                       # number of InvalidateReq MSHR miss ticks (Tick)
system.l2.InvalidateReq.mshrMissRate::cpu.data     1.000000                       # mshr miss rate for InvalidateReq accesses (Ratio)
system.l2.InvalidateReq.mshrMissRate::total     1.000000                       # mshr miss rate for InvalidateReq accesses (Ratio)
system.l2.InvalidateReq.avgMshrMissLatency::cpu.data 19000.001697                       # average InvalidateReq mshr miss latency ((Tick/Count))
system.l2.InvalidateReq.avgMshrMissLatency::total 19000.001697                       # average InvalidateReq mshr miss latency ((Tick/Count))
system.l2.ReadCleanReq.hits::cpu.inst          159770                       # number of ReadCleanReq hits (Count)
system.l2.ReadCleanReq.hits::total             159770                       # number of ReadCleanReq hits (Count)
system.l2.ReadCleanReq.misses::cpu.inst         13089                       # number of ReadCleanReq misses (Count)
system.l2.ReadCleanReq.misses::total            13089                       # number of ReadCleanReq misses (Count)
system.l2.ReadCleanReq.missLatency::cpu.inst   1187142000                       # number of ReadCleanReq miss ticks (Tick)
system.l2.ReadCleanReq.missLatency::total   1187142000                       # number of ReadCleanReq miss ticks (Tick)
system.l2.ReadCleanReq.accesses::cpu.inst       172859                       # number of ReadCleanReq accesses(hits+misses) (Count)
system.l2.ReadCleanReq.accesses::total         172859                       # number of ReadCleanReq accesses(hits+misses) (Count)
system.l2.ReadCleanReq.missRate::cpu.inst     0.075721                       # miss rate for ReadCleanReq accesses (Ratio)
system.l2.ReadCleanReq.missRate::total       0.075721                       # miss rate for ReadCleanReq accesses (Ratio)
system.l2.ReadCleanReq.avgMissLatency::cpu.inst 90697.685079                       # average ReadCleanReq miss latency ((Tick/Count))
system.l2.ReadCleanReq.avgMissLatency::total 90697.685079                       # average ReadCleanReq miss latency ((Tick/Count))
system.l2.ReadCleanReq.mshrMisses::cpu.inst        13089                       # number of ReadCleanReq MSHR misses (Count)
system.l2.ReadCleanReq.mshrMisses::total        13089                       # number of ReadCleanReq MSHR misses (Count)
system.l2.ReadCleanReq.mshrMissLatency::cpu.inst   1056252000                       # number of ReadCleanReq MSHR miss ticks (Tick)
system.l2.ReadCleanReq.mshrMissLatency::total   1056252000                       # number of ReadCleanReq MSHR miss ticks (Tick)
system.l2.ReadCleanReq.mshrMissRate::cpu.inst     0.075721                       # mshr miss rate for ReadCleanReq accesses (Ratio)
system.l2.ReadCleanReq.mshrMissRate::total     0.075721                       # mshr miss rate for ReadCleanReq accesses (Ratio)
system.l2.ReadCleanReq.avgMshrMissLatency::cpu.inst 80697.685079                       # average ReadCleanReq mshr miss latency ((Tick/Count))
system.l2.ReadCleanReq.avgMshrMissLatency::total 80697.685079                       # average ReadCleanReq mshr miss latency ((Tick/Count))
system.l2.ReadExReq.hits::cpu.data              90919                       # number of ReadExReq hits (Count)
system.l2.ReadExReq.hits::total                 90919                       # number of ReadExReq hits (Count)
system.l2.ReadExReq.misses::cpu.data            27018                       # number of ReadExReq misses (Count)
system.l2.ReadExReq.misses::total               27018                       # number of ReadExReq misses (Count)
system.l2.ReadExReq.missLatency::cpu.data   2297047500                       # number of ReadExReq miss ticks (Tick)
system.l2.ReadExReq.missLatency::total     2297047500                       # number of ReadExReq miss ticks (Tick)
system.l2.ReadExReq.accesses::cpu.data         117937                       # number of ReadExReq accesses(hits+misses) (Count)
system.l2.ReadExReq.accesses::total            117937                       # number of ReadExReq accesses(hits+misses) (Count)
system.l2.ReadExReq.missRate::cpu.data       0.229088                       # miss rate for ReadExReq accesses (Ratio)
system.l2.ReadExReq.missRate::total          0.229088                       # miss rate for ReadExReq accesses (Ratio)
system.l2.ReadExReq.avgMissLatency::cpu.data 85019.153897                       # average ReadExReq miss latency ((Tick/Count))
system.l2.ReadExReq.avgMissLatency::total 85019.153897                       # average ReadExReq miss latency ((Tick/Count))
system.l2.ReadExReq.mshrMisses::cpu.data        27018                       # number of ReadExReq MSHR misses (Count)
system.l2.ReadExReq.mshrMisses::total           27018                       # number of ReadExReq MSHR misses (Count)
system.l2.ReadExReq.mshrMissLatency::cpu.data   2026867500                       # number of ReadExReq MSHR miss ticks (Tick)
system.l2.ReadExReq.mshrMissLatency::total   2026867500                       # number of ReadExReq MSHR miss ticks (Tick)
system.l2.ReadExReq.mshrMissRate::cpu.data     0.229088                       # mshr miss rate for ReadExReq accesses (Ratio)
system.l2.ReadExReq.mshrMissRate::total      0.229088                       # mshr miss rate for ReadExReq accesses (Ratio)
system.l2.ReadExReq.avgMshrMissLatency::cpu.data 75019.153897                       # average ReadExReq mshr miss latency ((Tick/Count))
system.l2.ReadExReq.avgMshrMissLatency::total 75019.153897                       # average ReadExReq mshr miss latency ((Tick/Count))
system.l2.ReadSharedReq.hits::cpu.data         336004                       # number of ReadSharedReq hits (Count)
system.l2.ReadSharedReq.hits::total            336004                       # number of ReadSharedReq hits (Count)
system.l2.ReadSharedReq.misses::cpu.data        24262                       # number of ReadSharedReq misses (Count)
system.l2.ReadSharedReq.misses::total           24262                       # number of ReadSharedReq misses (Count)
system.l2.ReadSharedReq.missLatency::cpu.data   2167093000                       # number of ReadSharedReq miss ticks (Tick)
system.l2.ReadSharedReq.missLatency::total   2167093000                       # number of ReadSharedReq miss ticks (Tick)
system.l2.ReadSharedReq.accesses::cpu.data       360266                       # number of ReadSharedReq accesses(hits+misses) (Count)
system.l2.ReadSharedReq.accesses::total        360266                       # number of ReadSharedReq accesses(hits+misses) (Count)
system.l2.ReadSharedReq.missRate::cpu.data     0.067345                       # miss rate for ReadSharedReq accesses (Ratio)
system.l2.ReadSharedReq.missRate::total      0.067345                       # miss rate for ReadSharedReq accesses (Ratio)
system.l2.ReadSharedReq.avgMissLatency::cpu.data 89320.459979                       # average ReadSharedReq miss latency ((Tick/Count))
system.l2.ReadSharedReq.avgMissLatency::total 89320.459979                       # average ReadSharedReq miss latency ((Tick/Count))
system.l2.ReadSharedReq.mshrMisses::cpu.data        24262                       # number of ReadSharedReq MSHR misses (Count)
system.l2.ReadSharedReq.mshrMisses::total        24262                       # number of ReadSharedReq MSHR misses (Count)
system.l2.ReadSharedReq.mshrMissLatency::cpu.data   1924473000                       # number of ReadSharedReq MSHR miss ticks (Tick)
system.l2.ReadSharedReq.mshrMissLatency::total   1924473000                       # number of ReadSharedReq MSHR miss ticks (Tick)
system.l2.ReadSharedReq.mshrMissRate::cpu.data     0.067345                       # mshr miss rate for ReadSharedReq accesses (Ratio)
system.l2.ReadSharedReq.mshrMissRate::total     0.067345                       # mshr miss rate for ReadSharedReq accesses (Ratio)
system.l2.ReadSharedReq.avgMshrMissLatency::cpu.data 79320.459979                       # average ReadSharedReq mshr miss latency ((Tick/Count))
system.l2.ReadSharedReq.avgMshrMissLatency::total 79320.459979                       # average ReadSharedReq mshr miss latency ((Tick/Count))
system.l2.WritebackClean.hits::writebacks       172347                       # number of WritebackClean hits (Count)
system.l2.WritebackClean.hits::total           172347                       # number of WritebackClean hits (Count)
system.l2.WritebackClean.accesses::writebacks       172347                       # number of WritebackClean accesses(hits+misses) (Count)
system.l2.WritebackClean.accesses::total       172347                       # number of WritebackClean accesses(hits+misses) (Count)
system.l2.WritebackDirty.hits::writebacks      4369957                       # number of WritebackDirty hits (Count)
system.l2.WritebackDirty.hits::total          4369957                       # number of WritebackDirty hits (Count)
system.l2.WritebackDirty.accesses::writebacks      4369957                       # number of WritebackDirty accesses(hits+misses) (Count)
system.l2.WritebackDirty.accesses::total      4369957                       # number of WritebackDirty accesses(hits+misses) (Count)
system.l2.power_state.pwrStateResidencyTicks::UNDEFINED 189919693000                       # Cumulative time (in ticks) in various power states (Tick)
system.l2.tags.tagsInUse                  2034.134763                       # Average ticks per tags in use ((Tick/Count))
system.l2.tags.totalRefs                      5422684                       # Total number of references to valid blocks. (Count)
system.l2.tags.sampledRefs                    4219989                       # Sample count of references to valid blocks. (Count)
system.l2.tags.avgRefs                       1.285000                       # Average number of references to valid blocks. ((Count/Count))
system.l2.tags.warmupTick                       82000                       # The tick when the warmup percentage was hit. (Tick)
system.l2.tags.occupancies::writebacks    1565.324810                       # Average occupied blocks per tick, per requestor ((Count/Tick))
system.l2.tags.occupancies::cpu.inst        67.991866                       # Average occupied blocks per tick, per requestor ((Count/Tick))
system.l2.tags.occupancies::cpu.data       400.818087                       # Average occupied blocks per tick, per requestor ((Count/Tick))
system.l2.tags.avgOccs::writebacks           0.764319                       # Average percentage of cache occupancy ((Ratio/Tick))
system.l2.tags.avgOccs::cpu.inst             0.033199                       # Average percentage of cache occupancy ((Ratio/Tick))
system.l2.tags.avgOccs::cpu.data             0.195712                       # Average percentage of cache occupancy ((Ratio/Tick))
system.l2.tags.avgOccs::total                0.993230                       # Average percentage of cache occupancy ((Ratio/Tick))
system.l2.tags.occupanciesTaskId::1024           2048                       # Occupied blocks per task id (Count)
system.l2.tags.ageTaskId_1024::0                    9                       # Occupied blocks per task id, per block age (Count)
system.l2.tags.ageTaskId_1024::1                   69                       # Occupied blocks per task id, per block age (Count)
system.l2.tags.ageTaskId_1024::2                  512                       # Occupied blocks per task id, per block age (Count)
system.l2.tags.ageTaskId_1024::3                  757                       # Occupied blocks per task id, per block age (Count)
system.l2.tags.ageTaskId_1024::4                  701                       # Occupied blocks per task id, per block age (Count)
system.l2.tags.ratioOccsTaskId::1024                1                       # Ratio of occupied blocks and all blocks, per task id (Ratio)
system.l2.tags.tagAccesses                   13773169                       # Number of tag accesses (Count)
system.l2.tags.dataAccesses                  13773169                       # Number of data accesses (Count)
system.l2.tags.power_state.pwrStateResidencyTicks::UNDEFINED 189919693000                       # Cumulative time (in ticks) in various power states (Tick)
system.mem_ctrls.avgPriority_writebacks::samples   8313906.00                       # Average QoS priority value for accepted requests (Count)
system.mem_ctrls.avgPriority_cpu.inst::samples     26178.00                       # Average QoS priority value for accepted requests (Count)
system.mem_ctrls.avgPriority_cpu.data::samples     91004.00                       # Average QoS priority value for accepted requests (Count)
system.mem_ctrls.priorityMinLatency      0.000000018750                       # per QoS priority minimum request to response latency (Second)
system.mem_ctrls.priorityMaxLatency      0.002526260500                       # per QoS priority maximum request to response latency (Second)
system.mem_ctrls.numReadWriteTurnArounds       304320                       # Number of turnarounds from READ to WRITE (Count)
system.mem_ctrls.numWriteReadTurnArounds       304320                       # Number of turnarounds from WRITE to READ (Count)
system.mem_ctrls.numStayReadState             2768904                       # Number of times bus staying in READ state (Count)
system.mem_ctrls.numStayWriteState            8116646                       # Number of times bus staying in WRITE state (Count)
system.mem_ctrls.readReqs                       64369                       # Number of read requests accepted (Count)
system.mem_ctrls.writeReqs                    4159825                       # Number of write requests accepted (Count)
system.mem_ctrls.readBursts                    128738                       # Number of controller read bursts, including those serviced by the write queue (Count)
system.mem_ctrls.writeBursts                  8319650                       # Number of controller write bursts, including those merged in the write queue (Count)
system.mem_ctrls.servicedByWrQ                  11556                       # Number of controller read bursts serviced by the write queue (Count)
system.mem_ctrls.mergedWrBursts                  5744                       # Number of controller write bursts merged with an existing one (Count)
[...]
system.mem_ctrls.dram.perBankWrBursts::12       519138                       # Per bank write bursts (Count)
system.mem_ctrls.dram.perBankWrBursts::13       519464                       # Per bank write bursts (Count)
system.mem_ctrls.dram.perBankWrBursts::14       519971                       # Per bank write bursts (Count)
system.mem_ctrls.dram.perBankWrBursts::15       519202                       # Per bank write bursts (Count)
system.mem_ctrls.dram.totQLat              2330528500                       # Total ticks spent queuing (Tick)
system.mem_ctrls.dram.totBusLat             585910000                       # Total ticks spent in databus transfers (Tick)
system.mem_ctrls.dram.totMemAccLat         4527691000                       # Total ticks spent from burst creation until serviced by the DRAM (Tick)
system.mem_ctrls.dram.avgQLat                19888.11                       # Average queueing delay per DRAM burst ((Tick/Count))
system.mem_ctrls.dram.avgBusLat               5000.00                       # Average bus latency per DRAM burst ((Tick/Count))
system.mem_ctrls.dram.avgMemAccLat           38638.11                       # Average memory access latency per DRAM burst ((Tick/Count))
system.mem_ctrls.dram.readRowHits               85620                       # Number of row buffer hits during reads (Count)
system.mem_ctrls.dram.writeRowHits            7763966                       # Number of row buffer hits during writes (Count)
system.mem_ctrls.dram.readRowHitRate            73.07                       # Row buffer hit rate for reads (Ratio)
system.mem_ctrls.dram.writeRowHitRate           93.39                       # Row buffer hit rate for writes (Ratio)
system.mem_ctrls.dram.bytesPerActivate::samples       581470                       # Bytes accessed per row activation (Byte)
system.mem_ctrls.dram.bytesPerActivate::mean   927.970943                       # Bytes accessed per row activation (Byte)
system.mem_ctrls.dram.bytesPerActivate::gmean   832.466879                       # Bytes accessed per row activation (Byte)
system.mem_ctrls.dram.bytesPerActivate::stdev   261.560376                       # Bytes accessed per row activation (Byte)
system.mem_ctrls.dram.bytesPerActivate::0-127         9500      1.63%      1.63% # Bytes accessed per row activation (Byte)
system.mem_ctrls.dram.bytesPerActivate::128-255        33132      5.70%      7.33% # Bytes accessed per row activation (Byte)
system.mem_ctrls.dram.bytesPerActivate::256-383         9243      1.59%      8.92% # Bytes accessed per row activation (Byte)
system.mem_ctrls.dram.bytesPerActivate::384-511         7322      1.26%     10.18% # Bytes accessed per row activation (Byte)
system.mem_ctrls.dram.bytesPerActivate::512-639         5493      0.94%     11.13% # Bytes accessed per row activation (Byte)
system.mem_ctrls.dram.bytesPerActivate::640-767         5128      0.88%     12.01% # Bytes accessed per row activation (Byte)
system.mem_ctrls.dram.bytesPerActivate::768-895         3252      0.56%     12.57% # Bytes accessed per row activation (Byte)
system.mem_ctrls.dram.bytesPerActivate::896-1023         9003      1.55%     14.11% # Bytes accessed per row activation (Byte)
system.mem_ctrls.dram.bytesPerActivate::1024-1151       499397     85.89%    100.00% # Bytes accessed per row activation (Byte)
system.mem_ctrls.dram.bytesPerActivate::total       581470                       # Bytes accessed per row activation (Byte)
system.mem_ctrls.dram.bytesRead               7499648                       # Total bytes read (Byte)
system.mem_ctrls.dram.bytesWritten          532088256                       # Total bytes written (Byte)
system.mem_ctrls.dram.avgRdBW               39.488522                       # Average DRAM read bandwidth in MiBytes/s ((Byte/Second))
system.mem_ctrls.dram.avgWrBW             2801.648674                       # Average DRAM write bandwidth in MiBytes/s ((Byte/Second))
system.mem_ctrls.dram.peakBW                 12800.00                       # Theoretical peak bandwidth in MiByte/s ((Byte/Second))
system.mem_ctrls.dram.busUtil                   22.20                       # Data bus utilization in percentage (Ratio)
system.mem_ctrls.dram.busUtilRead                0.31                       # Data bus utilization in percentage for reads (Ratio)
system.mem_ctrls.dram.busUtilWrite              21.89                       # Data bus utilization in percentage for writes (Ratio)
system.mem_ctrls.dram.pageHitRate               93.10                       # Row buffer hit rate, read and write combined (Ratio)
system.mem_ctrls.dram.power_state.pwrStateResidencyTicks::UNDEFINED 189919693000                       # Cumulative time (in ticks) in various power states (Tick)
system.mem_ctrls.dram.rank0.actEnergy      2076854640                       # Energy for activate commands per rank (pJ) (Joule)
system.mem_ctrls.dram.rank0.preEnergy      1103866830                       # Energy for precharge commands per rank (pJ) (Joule)
system.mem_ctrls.dram.rank0.readEnergy      440730780                       # Energy for read commands per rank (pJ) (Joule)
system.mem_ctrls.dram.rank0.writeEnergy   21684031380                       # Energy for write commands per rank (pJ) (Joule)
system.mem_ctrls.dram.rank0.refreshEnergy 14991684240.000002                       # Energy for refresh commands per rank (pJ) (Joule)
system.mem_ctrls.dram.rank0.actBackEnergy  51480276180                       # Energy for active background per rank (pJ) (Joule)
system.mem_ctrls.dram.rank0.preBackEnergy  29577350880                       # Energy for precharge background per rank (pJ) (Joule)
system.mem_ctrls.dram.rank0.actPowerDownEnergy            0                       # Energy for active power-down per rank (pJ) (Joule)
system.mem_ctrls.dram.rank0.prePowerDownEnergy            0                       # Energy for precharge power-down per rank (pJ) (Joule)
system.mem_ctrls.dram.rank0.selfRefreshEnergy            0                       # Energy for self refresh per rank (pJ) (Joule)
system.mem_ctrls.dram.rank0.totalEnergy  121354794930                       # Total energy per rank (pJ) (Joule)
system.mem_ctrls.dram.rank0.averagePower   638.979523                       # Core power per rank (mW) (Watt)
system.mem_ctrls.dram.rank0.totalIdleTime            0                       # Total Idle time Per DRAM Rank (Tick)
system.mem_ctrls.dram.rank0.pwrStateTime::IDLE  75487847500                       # Time in different power states (Tick)
system.mem_ctrls.dram.rank0.pwrStateTime::REF   6341660000                       # Time in different power states (Tick)
system.mem_ctrls.dram.rank0.pwrStateTime::SREF            0                       # Time in different power states (Tick)
system.mem_ctrls.dram.rank0.pwrStateTime::PRE_PDN            0                       # Time in different power states (Tick)
system.mem_ctrls.dram.rank0.pwrStateTime::ACT 108090185500                       # Time in different power states (Tick)
system.mem_ctrls.dram.rank0.pwrStateTime::ACT_PDN            0                       # Time in different power states (Tick)
system.mem_ctrls.dram.rank1.actEnergy      2074876860                       # Energy for activate commands per rank (pJ) (Joule)
system.mem_ctrls.dram.rank1.preEnergy      1102811820                       # Energy for precharge commands per rank (pJ) (Joule)
system.mem_ctrls.dram.rank1.readEnergy      395948700                       # Energy for read commands per rank (pJ) (Joule)
system.mem_ctrls.dram.rank1.writeEnergy   21714417000                       # Energy for write commands per rank (pJ) (Joule)
system.mem_ctrls.dram.rank1.refreshEnergy 14991684240.000002                       # Energy for refresh commands per rank (pJ) (Joule)
system.mem_ctrls.dram.rank1.actBackEnergy  51978098790                       # Energy for active background per rank (pJ) (Joule)
system.mem_ctrls.dram.rank1.preBackEnergy  29158131840                       # Energy for precharge background per rank (pJ) (Joule)
system.mem_ctrls.dram.rank1.actPowerDownEnergy            0                       # Energy for active power-down per rank (pJ) (Joule)
system.mem_ctrls.dram.rank1.prePowerDownEnergy            0                       # Energy for precharge power-down per rank (pJ) (Joule)
system.mem_ctrls.dram.rank1.selfRefreshEnergy            0                       # Energy for self refresh per rank (pJ) (Joule)
system.mem_ctrls.dram.rank1.totalEnergy  121415969250                       # Total energy per rank (pJ) (Joule)
system.mem_ctrls.dram.rank1.averagePower   639.301630                       # Core power per rank (mW) (Watt)
system.mem_ctrls.dram.rank1.totalIdleTime            0                       # Total Idle time Per DRAM Rank (Tick)
system.mem_ctrls.dram.rank1.pwrStateTime::IDLE  74399992750                       # Time in different power states (Tick)
system.mem_ctrls.dram.rank1.pwrStateTime::REF   6341660000                       # Time in different power states (Tick)
system.mem_ctrls.dram.rank1.pwrStateTime::SREF            0                       # Time in different power states (Tick)
system.mem_ctrls.dram.rank1.pwrStateTime::PRE_PDN            0                       # Time in different power states (Tick)
system.mem_ctrls.dram.rank1.pwrStateTime::ACT 109178040250                       # Time in different power states (Tick)
system.mem_ctrls.dram.rank1.pwrStateTime::ACT_PDN            0                       # Time in different power states (Tick)
system.mem_ctrls.power_state.pwrStateResidencyTicks::UNDEFINED 189919693000                       # Cumulative time (in ticks) in various power states (Tick)
system.membus.transDist::ReadResp               37351                       # Transaction distribution (Count)
system.membus.transDist::WritebackDirty       4159825                       # Transaction distribution (Count)
system.membus.transDist::CleanEvict             28060                       # Transaction distribution (Count)
system.membus.transDist::ReadExReq              27018                       # Transaction distribution (Count)
system.membus.transDist::ReadExResp             27018                       # Transaction distribution (Count)
system.membus.transDist::ReadSharedReq          37351                       # Transaction distribution (Count)
system.membus.transDist::InvalidateReq        4125816                       # Transaction distribution (Count)
system.membus.pktCount_system.l2.mem_side_port::system.mem_ctrls.port      8442439                       # Packet count per connected requestor and responder (Count)
system.membus.pktCount::total                 8442439                       # Packet count per connected requestor and responder (Count)
system.membus.pktSize_system.l2.mem_side_port::system.mem_ctrls.port    540696832                       # Cumulative packet size per connected requestor and responder (Byte)
system.membus.pktSize::total                540696832                       # Cumulative packet size per connected requestor and responder (Byte)
system.membus.snoops                                0                       # Total snoops (Count)
system.membus.snoopTraffic                          0                       # Total snoop traffic (Byte)
system.membus.snoopFanout::samples            4190185                       # Request fanout histogram (Count)
system.membus.snoopFanout::mean                     0                       # Request fanout histogram (Count)
system.membus.snoopFanout::stdev                    0                       # Request fanout histogram (Count)
system.membus.snoopFanout::underflows               0      0.00%      0.00% # Request fanout histogram (Count)
system.membus.snoopFanout::0                  4190185    100.00%    100.00% # Request fanout histogram (Count)
system.membus.snoopFanout::1                        0      0.00%    100.00% # Request fanout histogram (Count)
system.membus.snoopFanout::overflows                0      0.00%    100.00% # Request fanout histogram (Count)
system.membus.snoopFanout::min_value                0                       # Request fanout histogram (Count)
system.membus.snoopFanout::max_value                0                       # Request fanout histogram (Count)
system.membus.snoopFanout::total              4190185                       # Request fanout histogram (Count)
system.membus.power_state.pwrStateResidencyTicks::UNDEFINED 189919693000                       # Cumulative time (in ticks) in various power states (Tick)
system.membus.reqLayer0.occupancy         43738154000                       # Layer occupancy (ticks) (Tick)
system.membus.reqLayer0.utilization               0.2                       # Layer utilization (Ratio)
system.membus.respLayer1.occupancy          603130250                       # Layer occupancy (ticks) (Tick)
system.membus.respLayer1.utilization              0.0                       # Layer utilization (Ratio)
system.membus.snoop_filter.totRequests        8378070                       # Total number of requests made to the snoop filter. (Count)
system.membus.snoop_filter.hitSingleRequests      4187885                       # Number of requests hitting in the snoop filter with a single holder of the requested data. (Count)
system.membus.snoop_filter.hitMultiRequests            0                       # Number of requests hitting in the snoop filter with multiple (>1) holders of the requested data. (Count)
system.membus.snoop_filter.totSnoops                0                       # Total number of snoops made to the snoop filter. (Count)
system.membus.snoop_filter.hitSingleSnoops            0                       # Number of snoops hitting in the snoop filter with a single holder of the requested data. (Count)
system.membus.snoop_filter.hitMultiSnoops            0                       # Number of snoops hitting in the snoop filter with multiple (>1) holders of the requested data. (Count)
system.tol2bus.transDist::ReadResp             533125                       # Transaction distribution (Count)
system.tol2bus.transDist::WritebackDirty      8529782                       # Transaction distribution (Count)
system.tol2bus.transDist::WritebackClean       172347                       # Transaction distribution (Count)
system.tol2bus.transDist::CleanEvict           292114                       # Transaction distribution (Count)
system.tol2bus.transDist::ReadExReq            117937                       # Transaction distribution (Count)
system.tol2bus.transDist::ReadExResp           117937                       # Transaction distribution (Count)
system.tol2bus.transDist::ReadCleanReq         172859                       # Transaction distribution (Count)
system.tol2bus.transDist::ReadSharedReq        360266                       # Transaction distribution (Count)
system.tol2bus.transDist::InvalidateReq       4125817                       # Transaction distribution (Count)
system.tol2bus.transDist::InvalidateResp      4125817                       # Transaction distribution (Count)
system.tol2bus.pktCount_system.cpu.icache.mem_side_port::system.l2.cpu_side_port       518065                       # Packet count per connected requestor and responder (Count)
system.tol2bus.pktCount_system.cpu.dcache.mem_side_port::system.l2.cpu_side_port     13811996                       # Packet count per connected requestor and responder (Count)
system.tol2bus.pktCount::total               14330061                       # Packet count per connected requestor and responder (Count)
system.tol2bus.pktSize_system.cpu.icache.mem_side_port::system.l2.cpu_side_port     44186368                       # Cumulative packet size per connected requestor and responder (Byte)
system.tol2bus.pktSize_system.cpu.dcache.mem_side_port::system.l2.cpu_side_port    620564480                       # Cumulative packet size per connected requestor and responder (Byte)
system.tol2bus.pktSize::total               664750848                       # Cumulative packet size per connected requestor and responder (Byte)
system.tol2bus.snoops                         4217940                       # Total snoops (Count)
system.tol2bus.snoopTraffic                 532457600                       # Total snoop traffic (Byte)
system.tol2bus.snoopFanout::samples           8994819                       # Request fanout histogram (Count)
system.tol2bus.snoopFanout::mean             0.003862                       # Request fanout histogram (Count)
system.tol2bus.snoopFanout::stdev            0.062024                       # Request fanout histogram (Count)
system.tol2bus.snoopFanout::underflows              0      0.00%      0.00% # Request fanout histogram (Count)
system.tol2bus.snoopFanout::0                 8960082     99.61%     99.61% # Request fanout histogram (Count)
system.tol2bus.snoopFanout::1                   34737      0.39%    100.00% # Request fanout histogram (Count)
system.tol2bus.snoopFanout::2                       0      0.00%    100.00% # Request fanout histogram (Count)
system.tol2bus.snoopFanout::overflows               0      0.00%    100.00% # Request fanout histogram (Count)
system.tol2bus.snoopFanout::min_value               0                       # Request fanout histogram (Count)
system.tol2bus.snoopFanout::max_value               1                       # Request fanout histogram (Count)
system.tol2bus.snoopFanout::total             8994819                       # Request fanout histogram (Count)
system.tol2bus.power_state.pwrStateResidencyTicks::UNDEFINED 189919693000                       # Cumulative time (in ticks) in various power states (Tick)
system.tol2bus.reqLayer0.occupancy        13861199000                       # Layer occupancy (ticks) (Tick)
system.tol2bus.reqLayer0.utilization              0.1                       # Layer utilization (Ratio)
system.tol2bus.respLayer0.occupancy         432155983                       # Layer occupancy (ticks) (Tick)
system.tol2bus.respLayer0.utilization             0.0                       # Layer utilization (Ratio)
system.tol2bus.respLayer1.occupancy        3258420491                       # Layer occupancy (ticks) (Tick)
system.tol2bus.respLayer1.utilization             0.0                       # Layer utilization (Ratio)
system.tol2bus.snoop_filter.totRequests       9553182                       # Total number of requests made to the snoop filter. (Count)
system.tol2bus.snoop_filter.hitSingleRequests      4776303                       # Number of requests hitting in the snoop filter with a single holder of the requested data. (Count)
system.tol2bus.snoop_filter.hitMultiRequests            2                       # Number of requests hitting in the snoop filter with multiple (>1) holders of the requested data. (Count)
system.tol2bus.snoop_filter.totSnoops           34735                       # Total number of snoops made to the snoop filter. (Count)
system.tol2bus.snoop_filter.hitSingleSnoops        34735                       # Number of snoops hitting in the snoop filter with a single holder of the requested data. (Count)
system.tol2bus.snoop_filter.hitMultiSnoops            0                       # Number of snoops hitting in the snoop filter with multiple (>1) holders of the requested data. (Count)
system.voltage_domain.voltage                       1                       # Voltage in Volts (Volt)
system.workload.inst.arm                            0                       # number of arm instructions executed (Count)
system.workload.inst.quiesce                        0                       # number of quiesce instructions executed (Count)
system.cpu.idleCycles                       217082223                       # Total number of cycles that the object has spent stopped (Unspecified)
system.cpu.tickCycles                       162757163                       # Number of cycles that the object actually ticked (Unspecified)

---------- End Simulation Statistics   ----------
