
---------- Begin Simulation Statistics ----------
simSeconds                                   0.068252                       # Number of seconds simulated (Second)
simTicks                                  68252344000                       # Number of ticks simulated (Tick)
finalTick                                 68252344000                       # Number of ticks from beginning of simulation (restored from checkpoints and never reset) (Tick)
simFreq                                  1000000000000                       # The number of ticks per simulated second ((Tick/Second))
hostSeconds                                    237.33                       # Real time elapsed on the host (Second)
hostTickRate                                287578879                       # The number of ticks simulated per host second (ticks/s) ((Tick/Second))
hostMemory                                     690740                       # Number of bytes of host memory used (Byte)
simInsts                                    100000000                       # Number of instructions simulated (Count)
simOps                                      111671822                       # Number of ops (including micro ops) simulated (Count)
hostInstRate                                   421346                       # Simulator instruction rate (inst/s) ((Count/Second))
hostOpRate                                     470525                       # Simulator op (including micro ops) rate (op/s) ((Count/Second))
system.clk_domain.clock                          1000                       # Clock period in ticks (Tick)
system.cpu.numCycles                        136504688                       # Number of cpu cycles simulated (Cycle)
system.cpu.numWorkItemsStarted                      0                       # Number of work items this cpu started (Count)
system.cpu.numWorkItemsCompleted                    0                       # Number of work items this cpu completed (Count)
system.cpu.numInsts                         100000000                       # Number of instructions committed (Count)
system.cpu.numOps                           111671822                       # Number of ops (including micro ops) committed (Count)
system.cpu.numDiscardedOps                     342282                       # Number of ops (including micro ops) which were discarded before commit (Count)
system.cpu.numFetchSuspends                         0                       # Number of times Execute suspended instruction fetching (Count)
system.cpu.cpi                               1.365047                       # CPI: cycles per instruction ((Cycle/Count))
system.cpu.ipc                               0.732576                       # IPC: instructions per cycle ((Count/Cycle))
system.cpu.committedInstType_0::No_OpClass       148690      0.13%      0.13% # Class of committed instruction (Count)
system.cpu.committedInstType_0::IntAlu       74437433     66.66%     66.79% # Class of committed instruction (Count)
system.cpu.committedInstType_0::IntMult        470573      0.42%     67.21% # Class of committed instruction (Count)
system.cpu.committedInstType_0::IntDiv              4      0.00%     67.21% # Class of committed instruction (Count)
system.cpu.committedInstType_0::FloatAdd            0      0.00%     67.21% # Class of committed instruction (Count)
system.cpu.committedInstType_0::FloatCmp            0      0.00%     67.21% # Class of committed instruction (Count)
system.cpu.committedInstType_0::FloatCvt            0      0.00%     67.21% # Class of committed instruction (Count)
system.cpu.committedInstType_0::FloatMult            0      0.00%     67.21% # Class of committed instruction (Count)
system.cpu.committedInstType_0::FloatMultAcc            0      0.00%     67.21% # Class of committed instruction (Count)
system.cpu.committedInstType_0::FloatDiv            0      0.00%     67.21% # Class of committed instruction (Count)
system.cpu.committedInstType_0::FloatMisc       120138      0.11%     67.32% # Class of committed instruction (Count)
system.cpu.committedInstType_0::FloatSqrt            0      0.00%     67.32% # Class of committed instruction (Count)
system.cpu.committedInstType_0::SimdAdd         84838      0.08%     67.40% # Class of committed instruction (Count)
system.cpu.committedInstType_0::SimdAddAcc            0      0.00%     67.40% # Class of committed instruction (Count)
system.cpu.committedInstType_0::SimdAlu         84845      0.08%     67.47% # Class of committed instruction (Count)
system.cpu.committedInstType_0::SimdCmp        120277      0.11%     67.58% # Class of committed instruction (Count)
system.cpu.committedInstType_0::SimdCvt             0      0.00%     67.58% # Class of committed instruction (Count)
system.cpu.committedInstType_0::SimdMisc        99203      0.09%     67.67% # Class of committed instruction (Count)
system.cpu.committedInstType_0::SimdMult            0      0.00%     67.67% # Class of committed instruction (Count)
system.cpu.committedInstType_0::SimdMultAcc            0      0.00%     67.67% # Class of committed instruction (Count)
system.cpu.committedInstType_0::SimdShift            0      0.00%     67.67% # Class of committed instruction (Count)
system.cpu.committedInstType_0::SimdShiftAcc            0      0.00%     67.67% # Class of committed instruction (Count)
system.cpu.committedInstType_0::SimdDiv             0      0.00%     67.67% # Class of committed instruction (Count)
system.cpu.committedInstType_0::SimdSqrt            0      0.00%     67.67% # Class of committed instruction (Count)
system.cpu.committedInstType_0::SimdFloatAdd            0      0.00%     67.67% # Class of committed instruction (Count)
system.cpu.committedInstType_0::SimdFloatAlu            0      0.00%     67.67% # Class of committed instruction (Count)
system.cpu.committedInstType_0::SimdFloatCmp            0      0.00%     67.67% # Class of committed instruction (Count)
system.cpu.committedInstType_0::SimdFloatCvt            0      0.00%     67.67% # Class of committed instruction (Count)
system.cpu.committedInstType_0::SimdFloatDiv            0      0.00%     67.67% # Class of committed instruction (Count)
system.cpu.committedInstType_0::SimdFloatMisc            0      0.00%     67.67% # Class of committed instruction (Count)
system.cpu.committedInstType_0::SimdFloatMult            0      0.00%     67.67% # Class of committed instruction (Count)
system.cpu.committedInstType_0::SimdFloatMultAcc            0      0.00%     67.67% # Class of committed instruction (Count)
system.cpu.committedInstType_0::SimdFloatSqrt            0      0.00%     67.67% # Class of committed instruction (Count)
system.cpu.committedInstType_0::SimdReduceAdd            0      0.00%     67.67% # Class of committed instruction (Count)
system.cpu.committedInstType_0::SimdReduceAlu            0      0.00%     67.67% # Class of committed instruction (Count)
system.cpu.committedInstType_0::SimdReduceCmp            0      0.00%     67.67% # Class of committed instruction (Count)
system.cpu.committedInstType_0::SimdFloatReduceAdd            0      0.00%     67.67% # Class of committed instruction (Count)
system.cpu.committedInstType_0::SimdFloatReduceCmp            0      0.00%     67.67% # Class of committed instruction (Count)
system.cpu.committedInstType_0::SimdAes             0      0.00%     67.67% # Class of committed instruction (Count)
system.cpu.committedInstType_0::SimdAesMix            0      0.00%     67.67% # Class of committed instruction (Count)
system.cpu.committedInstType_0::SimdSha1Hash            0      0.00%     67.67% # Class of committed instruction (Count)
system.cpu.committedInstType_0::SimdSha1Hash2            0      0.00%     67.67% # Class of committed instruction (Count)
system.cpu.committedInstType_0::SimdSha256Hash            0      0.00%     67.67% # Class of committed instruction (Count)
system.cpu.committedInstType_0::SimdSha256Hash2            0      0.00%     67.67% # Class of committed instruction (Count)
system.cpu.committedInstType_0::SimdShaSigma2            0      0.00%     67.67% # Class of committed instruction (Count)
system.cpu.committedInstType_0::SimdShaSigma3            0      0.00%     67.67% # Class of committed instruction (Count)
system.cpu.committedInstType_0::SimdPredAlu            0      0.00%     67.67% # Class of committed instruction (Count)
system.cpu.committedInstType_0::MemRead      19805980     17.74%     85.40% # Class of committed instruction (Count)
system.cpu.committedInstType_0::MemWrite     16299841     14.60%    100.00% # Class of committed instruction (Count)
system.cpu.committedInstType_0::FloatMemRead            0      0.00%    100.00% # Class of committed instruction (Count)
system.cpu.committedInstType_0::FloatMemWrite            0      0.00%    100.00% # Class of committed instruction (Count)
system.cpu.committedInstType_0::IprAccess            0      0.00%    100.00% # Class of committed instruction (Count)
system.cpu.committedInstType_0::InstPrefetch            0      0.00%    100.00% # Class of committed instruction (Count)
system.cpu.committedInstType_0::total       111671822                       # Class of committed instruction (Count)
system.cpu.branchPred.lookups                22137779                       # Number of BP lookups (Count)
system.cpu.branchPred.condPredicted          17582890                       # Number of conditional branches predicted (Count)
system.cpu.branchPred.condIncorrect             89542                       # Number of conditional branches incorrect (Count)
system.cpu.branchPred.BTBLookups              9026546                       # Number of BTB lookups (Count)
system.cpu.branchPred.BTBHits                 9025182                       # Number of BTB hits (Count)
system.cpu.branchPred.BTBHitRatio            0.999849                       # BTB Hit Ratio (Ratio)
system.cpu.branchPred.RASUsed                 1180710                       # Number of times the RAS was used to get a target. (Count)
system.cpu.branchPred.RASIncorrect                 32                       # Number of incorrect RAS predictions. (Count)
system.cpu.branchPred.indirectLookups          291861                       # Number of indirect predictor lookups. (Count)
system.cpu.branchPred.indirectHits             291668                       # Number of indirect target hits. (Count)
system.cpu.branchPred.indirectMisses              193                       # Number of indirect misses. (Count)
system.cpu.branchPred.indirectMispredicted          154                       # Number of mispredicted indirect branches. (Count)
system.cpu.dcache.demandHits::cpu.data       35851857                       # number of demand (read+write) hits (Count)
system.cpu.dcache.demandHits::total          35851857                       # number of demand (read+write) hits (Count)
system.cpu.dcache.overallHits::cpu.data      35851857                       # number of overall hits (Count)
system.cpu.dcache.overallHits::total         35851857                       # number of overall hits (Count)
system.cpu.dcache.demandMisses::cpu.data       135317                       # number of demand (read+write) misses (Count)
system.cpu.dcache.demandMisses::total          135317                       # number of demand (read+write) misses (Count)
system.cpu.dcache.overallMisses::cpu.data       135317                       # number of overall misses (Count)
system.cpu.dcache.overallMisses::total         135317                       # number of overall misses (Count)
system.cpu.dcache.demandMissLatency::cpu.data   8489823500                       # number of demand (read+write) miss ticks (Tick)
system.cpu.dcache.demandMissLatency::total   8489823500                       # number of demand (read+write) miss ticks (Tick)
system.cpu.dcache.overallMissLatency::cpu.data   8489823500                       # number of overall miss ticks (Tick)
system.cpu.dcache.overallMissLatency::total   8489823500                       # number of overall miss ticks (Tick)
system.cpu.dcache.demandAccesses::cpu.data     35987174                       # number of demand (read+write) accesses (Count)
system.cpu.dcache.demandAccesses::total      35987174                       # number of demand (read+write) accesses (Count)
system.cpu.dcache.overallAccesses::cpu.data     35987174                       # number of overall (read+write) accesses (Count)
system.cpu.dcache.overallAccesses::total     35987174                       # number of overall (read+write) accesses (Count)
system.cpu.dcache.demandMissRate::cpu.data     0.003760                       # miss rate for demand accesses (Ratio)
system.cpu.dcache.demandMissRate::total      0.003760                       # miss rate for demand accesses (Ratio)
system.cpu.dcache.overallMissRate::cpu.data     0.003760                       # miss rate for overall accesses (Ratio)
system.cpu.dcache.overallMissRate::total     0.003760                       # miss rate for overall accesses (Ratio)
system.cpu.dcache.demandAvgMissLatency::cpu.data 62740.258061                       # average overall miss latency in ticks ((Tick/Count))
system.cpu.dcache.demandAvgMissLatency::total 62740.258061                       # average overall miss latency in ticks ((Tick/Count))
system.cpu.dcache.overallAvgMissLatency::cpu.data 62740.258061                       # average overall miss latency ((Tick/Count))
system.cpu.dcache.overallAvgMissLatency::total 62740.258061                       # average overall miss latency ((Tick/Count))
system.cpu.dcache.blockedCycles::no_mshrs            0                       # number of cycles access was blocked (Cycle)
system.cpu.dcache.blockedCycles::no_targets            0                       # number of cycles access was blocked (Cycle)
system.cpu.dcache.blockedCauses::no_mshrs            0                       # number of times access was blocked (Count)
system.cpu.dcache.blockedCauses::no_targets            0                       # number of times access was blocked (Count)
system.cpu.dcache.avgBlocked::no_mshrs            nan                       # average number of cycles each access was blocked ((Cycle/Count))
system.cpu.dcache.avgBlocked::no_targets          nan                       # average number of cycles each access was blocked ((Cycle/Count))
system.cpu.dcache.writebacks::writebacks       105331                       # number of writebacks (Count)
system.cpu.dcache.writebacks::total            105331                       # number of writebacks (Count)
system.cpu.dcache.demandMshrHits::cpu.data        18116                       # number of demand (read+write) MSHR hits (Count)
system.cpu.dcache.demandMshrHits::total         18116                       # number of demand (read+write) MSHR hits (Count)
system.cpu.dcache.overallMshrHits::cpu.data        18116                       # number of overall MSHR hits (Count)
system.cpu.dcache.overallMshrHits::total        18116                       # number of overall MSHR hits (Count)
system.cpu.dcache.demandMshrMisses::cpu.data       117201                       # number of demand (read+write) MSHR misses (Count)
system.cpu.dcache.demandMshrMisses::total       117201                       # number of demand (read+write) MSHR misses (Count)
system.cpu.dcache.overallMshrMisses::cpu.data       117201                       # number of overall MSHR misses (Count)
system.cpu.dcache.overallMshrMisses::total       117201                       # number of overall MSHR misses (Count)
system.cpu.dcache.demandMshrMissLatency::cpu.data   7341982000                       # number of demand (read+write) MSHR miss ticks (Tick)
system.cpu.dcache.demandMshrMissLatency::total   7341982000                       # number of demand (read+write) MSHR miss ticks (Tick)
system.cpu.dcache.overallMshrMissLatency::cpu.data   7341982000                       # number of overall MSHR miss ticks (Tick)
system.cpu.dcache.overallMshrMissLatency::total   7341982000                       # number of overall MSHR miss ticks (Tick)
system.cpu.dcache.demandMshrMissRate::cpu.data     0.003257                       # mshr miss ratio for demand accesses (Ratio)
system.cpu.dcache.demandMshrMissRate::total     0.003257                       # mshr miss ratio for demand accesses (Ratio)
system.cpu.dcache.overallMshrMissRate::cpu.data     0.003257                       # mshr miss ratio for overall accesses (Ratio)
system.cpu.dcache.overallMshrMissRate::total     0.003257                       # mshr miss ratio for overall accesses (Ratio)
system.cpu.dcache.demandAvgMshrMissLatency::cpu.data 62644.363103                       # average overall mshr miss latency ((Tick/Count))
system.cpu.dcache.demandAvgMshrMissLatency::total 62644.363103                       # average overall mshr miss latency ((Tick/Count))
system.cpu.dcache.overallAvgMshrMissLatency::cpu.data 62644.363103                       # average overall mshr miss latency ((Tick/Count))
system.cpu.dcache.overallAvgMshrMissLatency::total 62644.363103                       # average overall mshr miss latency ((Tick/Count))
system.cpu.dcache.replacements                 116690                       # number of replacements (Count)
system.cpu.dcache.LoadLockedReq.hits::cpu.data            3                       # number of LoadLockedReq hits (Count)
system.cpu.dcache.LoadLockedReq.hits::total            3                       # number of LoadLockedReq hits (Count)
system.cpu.dcache.LoadLockedReq.misses::cpu.data            1                       # number of LoadLockedReq misses (Count)
system.cpu.dcache.LoadLockedReq.misses::total            1                       # number of LoadLockedReq misses (Count)
system.cpu.dcache.LoadLockedReq.missLatency::cpu.data        86000                       # number of LoadLockedReq miss ticks (Tick)
system.cpu.dcache.LoadLockedReq.missLatency::total        86000                       # number of LoadLockedReq miss ticks (Tick)
system.cpu.dcache.LoadLockedReq.accesses::cpu.data            4                       # number of LoadLockedReq accesses(hits+misses) (Count)
system.cpu.dcache.LoadLockedReq.accesses::total            4                       # number of LoadLockedReq accesses(hits+misses) (Count)
system.cpu.dcache.LoadLockedReq.missRate::cpu.data     0.250000                       # miss rate for LoadLockedReq accesses (Ratio)
system.cpu.dcache.LoadLockedReq.missRate::total     0.250000                       # miss rate for LoadLockedReq accesses (Ratio)
system.cpu.dcache.LoadLockedReq.avgMissLatency::cpu.data        86000                       # average LoadLockedReq miss latency ((Tick/Count))
system.cpu.dcache.LoadLockedReq.avgMissLatency::total        86000                       # average LoadLockedReq miss latency ((Tick/Count))
system.cpu.dcache.LoadLockedReq.mshrMisses::cpu.data            1                       # number of LoadLockedReq MSHR misses (Count)
system.cpu.dcache.LoadLockedReq.mshrMisses::total            1                       # number of LoadLockedReq MSHR misses (Count)
system.cpu.dcache.LoadLockedReq.mshrMissLatency::cpu.data        85000                       # number of LoadLockedReq MSHR miss ticks (Tick)
system.cpu.dcache.LoadLockedReq.mshrMissLatency::total        85000                       # number of LoadLockedReq MSHR miss ticks (Tick)
system.cpu.dcache.LoadLockedReq.mshrMissRate::cpu.data     0.250000                       # mshr miss rate for LoadLockedReq accesses (Ratio)
system.cpu.dcache.LoadLockedReq.mshrMissRate::total     0.250000                       # mshr miss rate for LoadLockedReq accesses (Ratio)
system.cpu.dcache.LoadLockedReq.avgMshrMissLatency::cpu.data        85000                       # average LoadLockedReq mshr miss latency ((Tick/Count))
system.cpu.dcache.LoadLockedReq.avgMshrMissLatency::total        85000                       # average LoadLockedReq mshr miss latency ((Tick/Count))
system.cpu.dcache.ReadReq.hits::cpu.data     19747902                       # number of ReadReq hits (Count)
system.cpu.dcache.ReadReq.hits::total        19747902                       # number of ReadReq hits (Count)
system.cpu.dcache.ReadReq.misses::cpu.data        39784                       # number of ReadReq misses (Count)
system.cpu.dcache.ReadReq.misses::total         39784                       # number of ReadReq misses (Count)
system.cpu.dcache.ReadReq.missLatency::cpu.data   1242734000                       # number of ReadReq miss ticks (Tick)
system.cpu.dcache.ReadReq.missLatency::total   1242734000                       # number of ReadReq miss ticks (Tick)
system.cpu.dcache.ReadReq.accesses::cpu.data     19787686                       # number of ReadReq accesses(hits+misses) (Count)
system.cpu.dcache.ReadReq.accesses::total     19787686                       # number of ReadReq accesses(hits+misses) (Count)
system.cpu.dcache.ReadReq.missRate::cpu.data     0.002011                       # miss rate for ReadReq accesses (Ratio)
system.cpu.dcache.ReadReq.missRate::total     0.002011                       # miss rate for ReadReq accesses (Ratio)
system.cpu.dcache.ReadReq.avgMissLatency::cpu.data 31237.029962                       # average ReadReq miss latency ((Tick/Count))
system.cpu.dcache.ReadReq.avgMissLatency::total 31237.029962                       # average ReadReq miss latency ((Tick/Count))
system.cpu.dcache.ReadReq.mshrHits::cpu.data            7                       # number of ReadReq MSHR hits (Count)
system.cpu.dcache.ReadReq.mshrHits::total            7                       # number of ReadReq MSHR hits (Count)
system.cpu.dcache.ReadReq.mshrMisses::cpu.data        39777                       # number of ReadReq MSHR misses (Count)
system.cpu.dcache.ReadReq.mshrMisses::total        39777                       # number of ReadReq MSHR misses (Count)
system.cpu.dcache.ReadReq.mshrMissLatency::cpu.data   1202549500                       # number of ReadReq MSHR miss ticks (Tick)
system.cpu.dcache.ReadReq.mshrMissLatency::total   1202549500                       # number of ReadReq MSHR miss ticks (Tick)
system.cpu.dcache.ReadReq.mshrMissRate::cpu.data     0.002010                       # mshr miss rate for ReadReq accesses (Ratio)
system.cpu.dcache.ReadReq.mshrMissRate::total     0.002010                       # mshr miss rate for ReadReq accesses (Ratio)
system.cpu.dcache.ReadReq.avgMshrMissLatency::cpu.data 30232.282475                       # average ReadReq mshr miss latency ((Tick/Count))
system.cpu.dcache.ReadReq.avgMshrMissLatency::total 30232.282475                       # average ReadReq mshr miss latency ((Tick/Count))
system.cpu.dcache.StoreCondReq.hits::cpu.data            4                       # number of StoreCondReq hits (Count)
system.cpu.dcache.StoreCondReq.hits::total            4                       # number of StoreCondReq hits (Count)
system.cpu.dcache.StoreCondReq.accesses::cpu.data            4                       # number of StoreCondReq accesses(hits+misses) (Count)
system.cpu.dcache.StoreCondReq.accesses::total            4                       # number of StoreCondReq accesses(hits+misses) (Count)
system.cpu.dcache.SwapReq.hits::cpu.data        99084                       # number of SwapReq hits (Count)
system.cpu.dcache.SwapReq.hits::total           99084                       # number of SwapReq hits (Count)
system.cpu.dcache.SwapReq.accesses::cpu.data        99084                       # number of SwapReq accesses(hits+misses) (Count)
system.cpu.dcache.SwapReq.accesses::total        99084                       # number of SwapReq accesses(hits+misses) (Count)
system.cpu.dcache.WriteLineReq.misses::cpu.data           14                       # number of WriteLineReq misses (Count)
system.cpu.dcache.WriteLineReq.misses::total           14                       # number of WriteLineReq misses (Count)
system.cpu.dcache.WriteLineReq.missLatency::cpu.data       441500                       # number of WriteLineReq miss ticks (Tick)
system.cpu.dcache.WriteLineReq.missLatency::total       441500                       # number of WriteLineReq miss ticks (Tick)
system.cpu.dcache.WriteLineReq.accesses::cpu.data           14                       # number of WriteLineReq accesses(hits+misses) (Count)
system.cpu.dcache.WriteLineReq.accesses::total           14                       # number of WriteLineReq accesses(hits+misses) (Count)
system.cpu.dcache.WriteLineReq.missRate::cpu.data            1                       # miss rate for WriteLineReq accesses (Ratio)
system.cpu.dcache.WriteLineReq.missRate::total            1                       # miss rate for WriteLineReq accesses (Ratio)
system.cpu.dcache.WriteLineReq.avgMissLatency::cpu.data 31535.714286                       # average WriteLineReq miss latency ((Tick/Count))
system.cpu.dcache.WriteLineReq.avgMissLatency::total 31535.714286                       # average WriteLineReq miss latency ((Tick/Count))
system.cpu.dcache.WriteLineReq.mshrMisses::cpu.data           14                       # number of WriteLineReq MSHR misses (Count)
system.cpu.dcache.WriteLineReq.mshrMisses::total           14                       # number of WriteLineReq MSHR misses (Count)
system.cpu.dcache.WriteLineReq.mshrMissLatency::cpu.data       427500                       # number of WriteLineReq MSHR miss ticks (Tick)
system.cpu.dcache.WriteLineReq.mshrMissLatency::total       427500                       # number of WriteLineReq MSHR miss ticks (Tick)
system.cpu.dcache.WriteLineReq.mshrMissRate::cpu.data            1                       # mshr miss rate for WriteLineReq accesses (Ratio)
system.cpu.dcache.WriteLineReq.mshrMissRate::total            1                       # mshr miss rate for WriteLineReq accesses (Ratio)
system.cpu.dcache.WriteLineReq.avgMshrMissLatency::cpu.data 30535.714286                       # average WriteLineReq mshr miss latency ((Tick/Count))
system.cpu.dcache.WriteLineReq.avgMshrMissLatency::total 30535.714286                       # average WriteLineReq mshr miss latency ((Tick/Count))
system.cpu.dcache.WriteReq.hits::cpu.data     16103955                       # number of WriteReq hits (Count)
system.cpu.dcache.WriteReq.hits::total       16103955                       # number of WriteReq hits (Count)
system.cpu.dcache.WriteReq.misses::cpu.data        95519                       # number of WriteReq misses (Count)
system.cpu.dcache.WriteReq.misses::total        95519                       # number of WriteReq misses (Count)
system.cpu.dcache.WriteReq.missLatency::cpu.data   7246648000                       # number of WriteReq miss ticks (Tick)
system.cpu.dcache.WriteReq.missLatency::total   7246648000                       # number of WriteReq miss ticks (Tick)
system.cpu.dcache.WriteReq.accesses::cpu.data     16199474                       # number of WriteReq accesses(hits+misses) (Count)
system.cpu.dcache.WriteReq.accesses::total     16199474                       # number of WriteReq accesses(hits+misses) (Count)
system.cpu.dcache.WriteReq.missRate::cpu.data     0.005896                       # miss rate for WriteReq accesses (Ratio)
system.cpu.dcache.WriteReq.missRate::total     0.005896                       # miss rate for WriteReq accesses (Ratio)
system.cpu.dcache.WriteReq.avgMissLatency::cpu.data 75866.037124                       # average WriteReq miss latency ((Tick/Count))
system.cpu.dcache.WriteReq.avgMissLatency::total 75866.037124                       # average WriteReq miss latency ((Tick/Count))
system.cpu.dcache.WriteReq.mshrHits::cpu.data        18109                       # number of WriteReq MSHR hits (Count)
system.cpu.dcache.WriteReq.mshrHits::total        18109                       # number of WriteReq MSHR hits (Count)
system.cpu.dcache.WriteReq.mshrMisses::cpu.data        77410                       # number of WriteReq MSHR misses (Count)
system.cpu.dcache.WriteReq.mshrMisses::total        77410                       # number of WriteReq MSHR misses (Count)
system.cpu.dcache.WriteReq.mshrMissLatency::cpu.data   6139005000                       # number of WriteReq MSHR miss ticks (Tick)
system.cpu.dcache.WriteReq.mshrMissLatency::total   6139005000                       # number of WriteReq MSHR miss ticks (Tick)
system.cpu.dcache.WriteReq.mshrMissRate::cpu.data     0.004779                       # mshr miss rate for WriteReq accesses (Ratio)
system.cpu.dcache.WriteReq.mshrMissRate::total     0.004779                       # mshr miss rate for WriteReq accesses (Ratio)
system.cpu.dcache.WriteReq.avgMshrMissLatency::cpu.data 79305.063945                       # average WriteReq mshr miss latency ((Tick/Count))
system.cpu.dcache.WriteReq.avgMshrMissLatency::total 79305.063945                       # average WriteReq mshr miss latency ((Tick/Count))
system.cpu.dcache.power_state.pwrStateResidencyTicks::UNDEFINED  68252344000                       # Cumulative time (in ticks) in various power states (Tick)
system.cpu.dcache.tags.tagsInUse           511.477830                       # Average ticks per tags in use ((Tick/Count))
system.cpu.dcache.tags.totalRefs             36068150                       # Total number of references to valid blocks. (Count)
system.cpu.dcache.tags.sampledRefs             117202                       # Sample count of references to valid blocks. (Count)
system.cpu.dcache.tags.avgRefs             307.743469                       # Average number of references to valid blocks. ((Count/Count))
system.cpu.dcache.tags.warmupTick              196500                       # The tick when the warmup percentage was hit. (Tick)
system.cpu.dcache.tags.occupancies::cpu.data   511.477830                       # Average occupied blocks per tick, per requestor ((Count/Tick))
system.cpu.dcache.tags.avgOccs::cpu.data     0.998980                       # Average percentage of cache occupancy ((Ratio/Tick))
system.cpu.dcache.tags.avgOccs::total        0.998980                       # Average percentage of cache occupancy ((Ratio/Tick))
system.cpu.dcache.tags.occupanciesTaskId::1024          512                       # Occupied blocks per task id (Count)
system.cpu.dcache.tags.ageTaskId_1024::0           13                       # Occupied blocks per task id, per block age (Count)
system.cpu.dcache.tags.ageTaskId_1024::1          124                       # Occupied blocks per task id, per block age (Count)
system.cpu.dcache.tags.ageTaskId_1024::2          335                       # Occupied blocks per task id, per block age (Count)
system.cpu.dcache.tags.ageTaskId_1024::3            8                       # Occupied blocks per task id, per block age (Count)
system.cpu.dcache.tags.ageTaskId_1024::4           32                       # Occupied blocks per task id, per block age (Count)
system.cpu.dcache.tags.ratioOccsTaskId::1024            1                       # Ratio of occupied blocks and all blocks, per task id (Ratio)
system.cpu.dcache.tags.tagAccesses           72289734                       # Number of tag accesses (Count)
system.cpu.dcache.tags.dataAccesses          72289734                       # Number of data accesses (Count)
system.cpu.dcache.tags.power_state.pwrStateResidencyTicks::UNDEFINED  68252344000                       # Cumulative time (in ticks) in various power states (Tick)
system.cpu.fetch2.intInstructions            54483465                       # Number of integer instructions successfully decoded (Count)
system.cpu.fetch2.fpInstructions                    0                       # Number of floating point instructions successfully decoded (Count)
system.cpu.fetch2.vecInstructions              570292                       # Number of SIMD instructions successfully decoded (Count)
system.cpu.fetch2.loadInstructions           16220077                       # Number of memory load instructions successfully decoded (Count)
system.cpu.fetch2.storeInstructions           8652371                       # Number of memory store instructions successfully decoded (Count)
system.cpu.fetch2.amoInstructions               99088                       # Number of memory atomic instructions successfully decoded (Count)
system.cpu.icache.demandHits::cpu.inst       30140059                       # number of demand (read+write) hits (Count)
system.cpu.icache.demandHits::total          30140059                       # number of demand (read+write) hits (Count)
system.cpu.icache.overallHits::cpu.inst      30140059                       # number of overall hits (Count)
system.cpu.icache.overallHits::total         30140059                       # number of overall hits (Count)
system.cpu.icache.demandMisses::cpu.inst       446757                       # number of demand (read+write) misses (Count)
system.cpu.icache.demandMisses::total          446757                       # number of demand (read+write) misses (Count)
system.cpu.icache.overallMisses::cpu.inst       446757                       # number of overall misses (Count)
system.cpu.icache.overallMisses::total         446757                       # number of overall misses (Count)
system.cpu.icache.demandMissLatency::cpu.inst   5852776000                       # number of demand (read+write) miss ticks (Tick)
system.cpu.icache.demandMissLatency::total   5852776000                       # number of demand (read+write) miss ticks (Tick)
system.cpu.icache.overallMissLatency::cpu.inst   5852776000                       # number of overall miss ticks (Tick)
system.cpu.icache.overallMissLatency::total   5852776000                       # number of overall miss ticks (Tick)
system.cpu.icache.demandAccesses::cpu.inst     30586816                       # number of demand (read+write) accesses (Count)
system.cpu.icache.demandAccesses::total      30586816                       # number of demand (read+write) accesses (Count)
system.cpu.icache.overallAccesses::cpu.inst     30586816                       # number of overall (read+write) accesses (Count)
system.cpu.icache.overallAccesses::total     30586816                       # number of overall (read+write) accesses (Count)
system.cpu.icache.demandMissRate::cpu.inst     0.014606                       # miss rate for demand accesses (Ratio)
system.cpu.icache.demandMissRate::total      0.014606                       # miss rate for demand accesses (Ratio)
system.cpu.icache.overallMissRate::cpu.inst     0.014606                       # miss rate for overall accesses (Ratio)
system.cpu.icache.overallMissRate::total     0.014606                       # miss rate for overall accesses (Ratio)
system.cpu.icache.demandAvgMissLatency::cpu.inst 13100.580405                       # average overall miss latency in ticks ((Tick/Count))
system.cpu.icache.demandAvgMissLatency::total 13100.580405                       # average overall miss latency in ticks ((Tick/Count))
system.cpu.icache.overallAvgMissLatency::cpu.inst 13100.580405                       # average overall miss latency ((Tick/Count))
system.cpu.icache.overallAvgMissLatency::total 13100.580405                       # average overall miss latency ((Tick/Count))
system.cpu.icache.blockedCycles::no_mshrs            0                       # number of cycles access was blocked (Cycle)
system.cpu.icache.blockedCycles::no_targets            0                       # number of cycles access was blocked (Cycle)
system.cpu.icache.blockedCauses::no_mshrs            0                       # number of times access was blocked (Count)
system.cpu.icache.blockedCauses::no_targets            0                       # number of times access was blocked (Count)
system.cpu.icache.avgBlocked::no_mshrs            nan                       # average number of cycles each access was blocked ((Cycle/Count))
system.cpu.icache.avgBlocked::no_targets          nan                       # average number of cycles each access was blocked ((Cycle/Count))
system.cpu.icache.writebacks::writebacks       446315                       # number of writebacks (Count)
system.cpu.icache.writebacks::total            446315                       # number of writebacks (Count)
system.cpu.icache.demandMshrMisses::cpu.inst       446757                       # number of demand (read+write) MSHR misses (Count)
system.cpu.icache.demandMshrMisses::total       446757                       # number of demand (read+write) MSHR misses (Count)
system.cpu.icache.overallMshrMisses::cpu.inst       446757                       # number of overall MSHR misses (Count)
system.cpu.icache.overallMshrMisses::total       446757                       # number of overall MSHR misses (Count)
system.cpu.icache.demandMshrMissLatency::cpu.inst   5406019000                       # number of demand (read+write) MSHR miss ticks (Tick)
system.cpu.icache.demandMshrMissLatency::total   5406019000                       # number of demand (read+write) MSHR miss ticks (Tick)
system.cpu.icache.overallMshrMissLatency::cpu.inst   5406019000                       # number of overall MSHR miss ticks (Tick)
system.cpu.icache.overallMshrMissLatency::total   5406019000                       # number of overall MSHR miss ticks (Tick)
system.cpu.icache.demandMshrMissRate::cpu.inst     0.014606                       # mshr miss ratio for demand accesses (Ratio)
system.cpu.icache.demandMshrMissRate::total     0.014606                       # mshr miss ratio for demand accesses (Ratio)
system.cpu.icache.overallMshrMissRate::cpu.inst     0.014606                       # mshr miss ratio for overall accesses (Ratio)
system.cpu.icache.overallMshrMissRate::total     0.014606                       # mshr miss ratio for overall accesses (Ratio)
system.cpu.icache.demandAvgMshrMissLatency::cpu.inst 12100.580405                       # average overall mshr miss latency ((Tick/Count))
system.cpu.icache.demandAvgMshrMissLatency::total 12100.580405                       # average overall mshr miss latency ((Tick/Count))
system.cpu.icache.overallAvgMshrMissLatency::cpu.inst 12100.580405                       # average overall mshr miss latency ((Tick/Count))
system.cpu.icache.overallAvgMshrMissLatency::total 12100.580405                       # average overall mshr miss latency ((Tick/Count))
system.cpu.icache.replacements                 446315                       # number of replacements (Count)
system.cpu.icache.ReadReq.hits::cpu.inst     30140059                       # number of ReadReq hits (Count)
system.cpu.icache.ReadReq.hits::total        30140059                       # number of ReadReq hits (Count)
system.cpu.icache.ReadReq.misses::cpu.inst       446757                       # number of ReadReq misses (Count)
system.cpu.icache.ReadReq.misses::total        446757                       # number of ReadReq misses (Count)
system.cpu.icache.ReadReq.missLatency::cpu.inst   5852776000                       # number of ReadReq miss ticks (Tick)
system.cpu.icache.ReadReq.missLatency::total   5852776000                       # number of ReadReq miss ticks (Tick)
system.cpu.icache.ReadReq.accesses::cpu.inst     30586816                       # number of ReadReq accesses(hits+misses) (Count)
system.cpu.icache.ReadReq.accesses::total     30586816                       # number of ReadReq accesses(hits+misses) (Count)
system.cpu.icache.ReadReq.missRate::cpu.inst     0.014606                       # miss rate for ReadReq accesses (Ratio)
system.cpu.icache.ReadReq.missRate::total     0.014606                       # miss rate for ReadReq accesses (Ratio)
system.cpu.icache.ReadReq.avgMissLatency::cpu.inst 13100.580405                       # average ReadReq miss latency ((Tick/Count))
system.cpu.icache.ReadReq.avgMissLatency::total 13100.580405                       # average ReadReq miss latency ((Tick/Count))
system.cpu.icache.ReadReq.mshrMisses::cpu.inst       446757                       # number of ReadReq MSHR misses (Count)
system.cpu.icache.ReadReq.mshrMisses::total       446757                       # number of ReadReq MSHR misses (Count)
system.cpu.icache.ReadReq.mshrMissLatency::cpu.inst   5406019000                       # number of ReadReq MSHR miss ticks (Tick)
system.cpu.icache.ReadReq.mshrMissLatency::total   5406019000                       # number of ReadReq MSHR miss ticks (Tick)
system.cpu.icache.ReadReq.mshrMissRate::cpu.inst     0.014606                       # mshr miss rate for ReadReq accesses (Ratio)
system.cpu.icache.ReadReq.mshrMissRate::total     0.014606                       # mshr miss rate for ReadReq accesses (Ratio)
system.cpu.icache.ReadReq.avgMshrMissLatency::cpu.inst 12100.580405                       # average ReadReq mshr miss latency ((Tick/Count))
system.cpu.icache.ReadReq.avgMshrMissLatency::total 12100.580405                       # average ReadReq mshr miss latency ((Tick/Count))
system.cpu.icache.power_state.pwrStateResidencyTicks::UNDEFINED  68252344000                       # Cumulative time (in ticks) in various power states (Tick)
system.cpu.icache.tags.tagsInUse           441.276492                       # Average ticks per tags in use ((Tick/Count))
system.cpu.icache.tags.totalRefs             30586816                       # Total number of references to valid blocks. (Count)
system.cpu.icache.tags.sampledRefs             446757                       # Sample count of references to valid blocks. (Count)
system.cpu.icache.tags.avgRefs              68.464100                       # Average number of references to valid blocks. ((Count/Count))
system.cpu.icache.tags.warmupTick               87500                       # The tick when the warmup percentage was hit. (Tick)
system.cpu.icache.tags.occupancies::cpu.inst   441.276492                       # Average occupied blocks per tick, per requestor ((Count/Tick))
system.cpu.icache.tags.avgOccs::cpu.inst     0.861868                       # Average percentage of cache occupancy ((Ratio/Tick))
system.cpu.icache.tags.avgOccs::total        0.861868                       # Average percentage of cache occupancy ((Ratio/Tick))
system.cpu.icache.tags.occupanciesTaskId::1024          442                       # Occupied blocks per task id (Count)
system.cpu.icache.tags.ageTaskId_1024::0            6                       # Occupied blocks per task id, per block age (Count)
system.cpu.icache.tags.ageTaskId_1024::2            2                       # Occupied blocks per task id, per block age (Count)
system.cpu.icache.tags.ageTaskId_1024::4          434                       # Occupied blocks per task id, per block age (Count)
system.cpu.icache.tags.ratioOccsTaskId::1024     0.863281                       # Ratio of occupied blocks and all blocks, per task id (Ratio)
system.cpu.icache.tags.tagAccesses           61620389                       # Number of tag accesses (Count)
system.cpu.icache.tags.dataAccesses          61620389                       # Number of data accesses (Count)
system.cpu.icache.tags.power_state.pwrStateResidencyTicks::UNDEFINED  68252344000                       # Cumulative time (in ticks) in various power states (Tick)
system.cpu.mmu.alignFaults                          0                       # Number of MMU faults due to alignment restrictions (Count)
system.cpu.mmu.prefetchFaults                       0                       # Number of MMU faults due to prefetch (Count)
system.cpu.mmu.domainFaults                         0                       # Number of MMU faults due to domain restrictions (Count)
system.cpu.mmu.permsFaults                          0                       # Number of MMU faults due to permissions restrictions (Count)
system.cpu.mmu.dtb.readHits                         0                       # Read hits (Count)
system.cpu.mmu.dtb.readMisses                       0                       # Read misses (Count)
system.cpu.mmu.dtb.writeHits                        0                       # Write hits (Count)
system.cpu.mmu.dtb.writeMisses                      0                       # Write misses (Count)
system.cpu.mmu.dtb.inserts                          0                       # Number of times an entry is inserted into the TLB (Count)
system.cpu.mmu.dtb.flushTlb                         0                       # Number of times complete TLB was flushed (Count)
system.cpu.mmu.dtb.flushTlbMva                      0                       # Number of times TLB was flushed by MVA (Count)
system.cpu.mmu.dtb.flushTlbMvaAsid                  0                       # Number of times TLB was flushed by MVA & ASID (Count)
system.cpu.mmu.dtb.flushTlbAsid                     0                       # Number of times TLB was flushed by ASID (Count)
system.cpu.mmu.dtb.flushedEntries                   0                       # Number of entries that have been flushed from TLB (Count)
system.cpu.mmu.dtb.readAccesses                     0                       # Read accesses (Count)
system.cpu.mmu.dtb.writeAccesses                    0                       # Write accesses (Count)
system.cpu.mmu.dtb.hits                             0                       # Total TLB (inst and data) hits (Count)
system.cpu.mmu.dtb.misses                           0                       # Total TLB (inst and data) misses (Count)
system.cpu.mmu.dtb.accesses                         0                       # Total TLB (inst and data) accesses (Count)
system.cpu.mmu.dtb_walker.walks                     0                       # Table walker walks requested (Count)
system.cpu.mmu.dtb_walker.requestOrigin_Requested::Data            0                       # Table walker requests started/completed, data/inst (Count)
system.cpu.mmu.dtb_walker.requestOrigin_Requested::Inst            0                       # Table walker requests started/completed, data/inst (Count)
system.cpu.mmu.dtb_walker.requestOrigin_Requested::total            0                       # Table walker requests started/completed, data/inst (Count)
system.cpu.mmu.dtb_walker.requestOrigin_Completed::Data            0                       # Table walker requests started/completed, data/inst (Count)
system.cpu.mmu.dtb_walker.requestOrigin_Completed::Inst            0                       # Table walker requests started/completed, data/inst (Count)
system.cpu.mmu.dtb_walker.requestOrigin_Completed::total            0                       # Table walker requests started/completed, data/inst (Count)
system.cpu.mmu.dtb_walker.requestOrigin::total            0                       # Table walker requests started/completed, data/inst (Count)
system.cpu.mmu.dtb_walker.power_state.pwrStateResidencyTicks::UNDEFINED  68252344000                       # Cumulative time (in ticks) in various power states (Tick)
system.cpu.mmu.itb.instHits                         0                       # Inst hits (Count)
system.cpu.mmu.itb.instMisses                       0                       # Inst misses (Count)
system.cpu.mmu.itb.inserts                          0                       # Number of times an entry is inserted into the TLB (Count)
system.cpu.mmu.itb.flushTlb                         0                       # Number of times complete TLB was flushed (Count)
system.cpu.mmu.itb.flushTlbMva                      0                       # Number of times TLB was flushed by MVA (Count)
system.cpu.mmu.itb.flushTlbMvaAsid                  0                       # Number of times TLB was flushed by MVA & ASID (Count)
system.cpu.mmu.itb.flushTlbAsid                     0                       # Number of times TLB was flushed by ASID (Count)
system.cpu.mmu.itb.flushedEntries                   0                       # Number of entries that have been flushed from TLB (Count)
system.cpu.mmu.itb.instAccesses                     0                       # Inst accesses (Count)
system.cpu.mmu.itb.hits                             0                       # Total TLB (inst and data) hits (Count)
system.cpu.mmu.itb.misses                           0                       # Total TLB (inst and data) misses (Count)
system.cpu.mmu.itb.accesses                         0                       # Total TLB (inst and data) accesses (Count)
system.cpu.mmu.itb_walker.walks                     0                       # Table walker walks requested (Count)
system.cpu.mmu.itb_walker.requestOrigin_Requested::Data            0                       # Table walker requests started/completed, data/inst (Count)
system.cpu.mmu.itb_walker.requestOrigin_Requested::Inst            0                       # Table walker requests started/completed, data/inst (Count)
system.cpu.mmu.itb_walker.requestOrigin_Requested::total            0                       # Table walker requests started/completed, data/inst (Count)
system.cpu.mmu.itb_walker.requestOrigin_Completed::Data            0                       # Table walker requests started/completed, data/inst (Count)
system.cpu.mmu.itb_walker.requestOrigin_Completed::Inst            0                       # Table walker requests started/completed, data/inst (Count)
system.cpu.mmu.itb_walker.requestOrigin_Completed::total            0                       # Table walker requests started/completed, data/inst (Count)
system.cpu.mmu.itb_walker.requestOrigin::total            0                       # Table walker requests started/completed, data/inst (Count)
system.cpu.mmu.itb_walker.power_state.pwrStateResidencyTicks::UNDEFINED  68252344000                       # Cumulative time (in ticks) in various power states (Tick)
system.cpu.mmu.l2_shared.instHits                   0                       # Inst hits (Count)
system.cpu.mmu.l2_shared.instMisses                 0                       # Inst misses (Count)
system.cpu.mmu.l2_shared.inserts                    0                       # Number of times an entry is inserted into the TLB (Count)
system.cpu.mmu.l2_shared.flushTlb                   0                       # Number of times complete TLB was flushed (Count)
system.cpu.mmu.l2_shared.flushTlbMva                0                       # Number of times TLB was flushed by MVA (Count)
system.cpu.mmu.l2_shared.flushTlbMvaAsid            0                       # Number of times TLB was flushed by MVA & ASID (Count)
system.cpu.mmu.l2_shared.flushTlbAsid               0                       # Number of times TLB was flushed by ASID (Count)
system.cpu.mmu.l2_shared.flushedEntries             0                       # Number of entries that have been flushed from TLB (Count)
system.cpu.mmu.l2_shared.instAccesses               0                       # Inst accesses (Count)
system.cpu.mmu.l2_shared.hits                       0                       # Total TLB (inst and data) hits (Count)
system.cpu.mmu.l2_shared.misses                     0                       # Total TLB (inst and data) misses (Count)
system.cpu.mmu.l2_shared.accesses                   0                       # Total TLB (inst and data) accesses (Count)
system.cpu.mmu.stage2_dtb.readHits                  0                       # Read hits (Count)
system.cpu.mmu.stage2_dtb.readMisses                0                       # Read misses (Count)
system.cpu.mmu.stage2_dtb.writeHits                 0                       # Write hits (Count)
system.cpu.mmu.stage2_dtb.writeMisses               0                       # Write misses (Count)
system.cpu.mmu.stage2_dtb.inserts                   0                       # Number of times an entry is inserted into the TLB (Count)
system.cpu.mmu.stage2_dtb.flushTlb                  0                       # Number of times complete TLB was flushed (Count)
system.cpu.mmu.stage2_dtb.flushTlbMva               0                       # Number of times TLB was flushed by MVA (Count)
system.cpu.mmu.stage2_dtb.flushTlbMvaAsid            0                       # Number of times TLB was flushed by MVA & ASID (Count)
system.cpu.mmu.stage2_dtb.flushTlbAsid              0                       # Number of times TLB was flushed by ASID (Count)
system.cpu.mmu.stage2_dtb.flushedEntries            0                       # Number of entries that have been flushed from TLB (Count)
system.cpu.mmu.stage2_dtb.readAccesses              0                       # Read accesses (Count)
system.cpu.mmu.stage2_dtb.writeAccesses             0                       # Write accesses (Count)
system.cpu.mmu.stage2_dtb.hits                      0                       # Total TLB (inst and data) hits (Count)
system.cpu.mmu.stage2_dtb.misses                    0                       # Total TLB (inst and data) misses (Count)
system.cpu.mmu.stage2_dtb.accesses                  0                       # Total TLB (inst and data) accesses (Count)
system.cpu.mmu.stage2_dtb_walker.walks              0                       # Table walker walks requested (Count)
system.cpu.mmu.stage2_dtb_walker.requestOrigin_Requested::Data            0                       # Table walker requests started/completed, data/inst (Count)
system.cpu.mmu.stage2_dtb_walker.requestOrigin_Requested::Inst            0                       # Table walker requests started/completed, data/inst (Count)
system.cpu.mmu.stage2_dtb_walker.requestOrigin_Requested::total            0                       # Table walker requests started/completed, data/inst (Count)
system.cpu.mmu.stage2_dtb_walker.requestOrigin_Completed::Data            0                       # Table walker requests started/completed, data/inst (Count)
system.cpu.mmu.stage2_dtb_walker.requestOrigin_Completed::Inst            0                       # Table walker requests started/completed, data/inst (Count)
system.cpu.mmu.stage2_dtb_walker.requestOrigin_Completed::total            0                       # Table walker requests started/completed, data/inst (Count)
system.cpu.mmu.stage2_dtb_walker.requestOrigin::total            0                       # Table walker requests started/completed, data/inst (Count)
system.cpu.mmu.stage2_dtb_walker.power_state.pwrStateResidencyTicks::UNDEFINED  68252344000                       # Cumulative time (in ticks) in various power states (Tick)
system.cpu.mmu.stage2_itb.instHits                  0                       # Inst hits (Count)
system.cpu.mmu.stage2_itb.instMisses                0                       # Inst misses (Count)
system.cpu.mmu.stage2_itb.inserts                   0                       # Number of times an entry is inserted into the TLB (Count)
system.cpu.mmu.stage2_itb.flushTlb                  0                       # Number of times complete TLB was flushed (Count)
system.cpu.mmu.stage2_itb.flushTlbMva               0                       # Number of times TLB was flushed by MVA (Count)
system.cpu.mmu.stage2_itb.flushTlbMvaAsid            0                       # Number of times TLB was flushed by MVA & ASID (Count)
system.cpu.mmu.stage2_itb.flushTlbAsid              0                       # Number of times TLB was flushed by ASID (Count)
system.cpu.mmu.stage2_itb.flushedEntries            0                       # Number of entries that have been flushed from TLB (Count)
system.cpu.mmu.stage2_itb.instAccesses              0                       # Inst accesses (Count)
system.cpu.mmu.stage2_itb.hits                      0                       # Total TLB (inst and data) hits (Count)
system.cpu.mmu.stage2_itb.misses                    0                       # Total TLB (inst and data) misses (Count)
system.cpu.mmu.stage2_itb.accesses                  0                       # Total TLB (inst and data) accesses (Count)
system.cpu.mmu.stage2_itb_walker.walks              0                       # Table walker walks requested (Count)
system.cpu.mmu.stage2_itb_walker.requestOrigin_Requested::Data            0                       # Table walker requests started/completed, data/inst (Count)
system.cpu.mmu.stage2_itb_walker.requestOrigin_Requested::Inst            0                       # Table walker requests started/completed, data/inst (Count)
system.cpu.mmu.stage2_itb_walker.requestOrigin_Requested::total            0                       # Table walker requests started/completed, data/inst (Count)
system.cpu.mmu.stage2_itb_walker.requestOrigin_Completed::Data            0                       # Table walker requests started/completed, data/inst (Count)
system.cpu.mmu.stage2_itb_walker.requestOrigin_Completed::Inst            0                       # Table walker requests started/completed, data/inst (Count)
system.cpu.mmu.stage2_itb_walker.requestOrigin_Completed::total            0                       # Table walker requests started/completed, data/inst (Count)
system.cpu.mmu.stage2_itb_walker.requestOrigin::total            0                       # Table walker requests started/completed, data/inst (Count)
system.cpu.mmu.stage2_itb_walker.power_state.pwrStateResidencyTicks::UNDEFINED  68252344000                       # Cumulative time (in ticks) in various power states (Tick)
system.cpu.power_state.pwrStateResidencyTicks::ON  68252344000                       # Cumulative time (in ticks) in various power states (Tick)
system.cpu.thread_0.numInsts                100000000                       # Number of Instructions committed (Count)
system.cpu.thread_0.numOps                  111671822                       # Number of Ops committed (Count)
system.cpu.thread_0.numMemRefs                      0                       # Number of Memory References (Count)
system.cpu.workload.numSyscalls                    93                       # Number of system calls (Count)
system.cpu_clk_domain.clock                       500                       # Clock period in ticks (Tick)
system.cpu_voltage_domain.voltage                   1                       # Voltage in Volts (Volt)
system.l2.demandHits::cpu.inst                 446082                       # number of demand (read+write) hits (Count)
system.l2.demandHits::cpu.data                  30793                       # number of demand (read+write) hits (Count)
system.l2.demandHits::total                    476875                       # number of demand (read+write) hits (Count)
system.l2.overallHits::cpu.inst                446082                       # number of overall hits (Count)
system.l2.overallHits::cpu.data                 30793                       # number of overall hits (Count)
system.l2.overallHits::total                   476875                       # number of overall hits (Count)
system.l2.demandMisses::cpu.inst                  675                       # number of demand (read+write) misses (Count)
system.l2.demandMisses::cpu.data                86395                       # number of demand (read+write) misses (Count)
system.l2.demandMisses::total                   87070                       # number of demand (read+write) misses (Count)
system.l2.overallMisses::cpu.inst                 675                       # number of overall misses (Count)
system.l2.overallMisses::cpu.data               86395                       # number of overall misses (Count)
system.l2.overallMisses::total                  87070                       # number of overall misses (Count)
system.l2.demandMissLatency::cpu.inst        52021500                       # number of demand (read+write) miss ticks (Tick)
system.l2.demandMissLatency::cpu.data      6842224500                       # number of demand (read+write) miss ticks (Tick)
system.l2.demandMissLatency::total         6894246000                       # number of demand (read+write) miss ticks (Tick)
system.l2.overallMissLatency::cpu.inst       52021500                       # number of overall miss ticks (Tick)
system.l2.overallMissLatency::cpu.data     6842224500                       # number of overall miss ticks (Tick)
system.l2.overallMissLatency::total        6894246000                       # number of overall miss ticks (Tick)
system.l2.demandAccesses::cpu.inst             446757                       # number of demand (read+write) accesses (Count)
system.l2.demandAccesses::cpu.data             117188                       # number of demand (read+write) accesses (Count)
system.l2.demandAccesses::total                563945                       # number of demand (read+write) accesses (Count)
system.l2.overallAccesses::cpu.inst            446757                       # number of overall (read+write) accesses (Count)
system.l2.overallAccesses::cpu.data            117188                       # number of overall (read+write) accesses (Count)
system.l2.overallAccesses::total               563945                       # number of overall (read+write) accesses (Count)
system.l2.demandMissRate::cpu.inst           0.001511                       # miss rate for demand accesses (Ratio)
system.l2.demandMissRate::cpu.data           0.737234                       # miss rate for demand accesses (Ratio)
system.l2.demandMissRate::total              0.154394                       # miss rate for demand accesses (Ratio)
system.l2.overallMissRate::cpu.inst          0.001511                       # miss rate for overall accesses (Ratio)
system.l2.overallMissRate::cpu.data          0.737234                       # miss rate for overall accesses (Ratio)
system.l2.overallMissRate::total             0.154394                       # miss rate for overall accesses (Ratio)
system.l2.demandAvgMissLatency::cpu.inst 77068.888889                       # average overall miss latency in ticks ((Tick/Count))
system.l2.demandAvgMissLatency::cpu.data 79196.996354                       # average overall miss latency in ticks ((Tick/Count))
system.l2.demandAvgMissLatency::total    79180.498450                       # average overall miss latency in ticks ((Tick/Count))
system.l2.overallAvgMissLatency::cpu.inst 77068.888889                       # average overall miss latency ((Tick/Count))
system.l2.overallAvgMissLatency::cpu.data 79196.996354                       # average overall miss latency ((Tick/Count))
system.l2.overallAvgMissLatency::total   79180.498450                       # average overall miss latency ((Tick/Count))
system.l2.blockedCycles::no_mshrs                   0                       # number of cycles access was blocked (Cycle)
system.l2.blockedCycles::no_targets                 0                       # number of cycles access was blocked (Cycle)
system.l2.blockedCauses::no_mshrs                   0                       # number of times access was blocked (Count)
system.l2.blockedCauses::no_targets                 0                       # number of times access was blocked (Count)
system.l2.avgBlocked::no_mshrs                    nan                       # average number of cycles each access was blocked ((Cycle/Count))
system.l2.avgBlocked::no_targets                  nan                       # average number of cycles each access was blocked ((Cycle/Count))
system.l2.writebacks::writebacks                53550                       # number of writebacks (Count)
system.l2.writebacks::total                     53550                       # number of writebacks (Count)
system.l2.demandMshrMisses::cpu.inst              675                       # number of demand (read+write) MSHR misses (Count)
system.l2.demandMshrMisses::cpu.data            86395                       # number of demand (read+write) MSHR misses (Count)
system.l2.demandMshrMisses::total               87070                       # number of demand (read+write) MSHR misses (Count)
system.l2.overallMshrMisses::cpu.inst             675                       # number of overall MSHR misses (Count)
system.l2.overallMshrMisses::cpu.data           86395                       # number of overall MSHR misses (Count)
system.l2.overallMshrMisses::total              87070                       # number of overall MSHR misses (Count)
system.l2.demandMshrMissLatency::cpu.inst     45271500                       # number of demand (read+write) MSHR miss ticks (Tick)
system.l2.demandMshrMissLatency::cpu.data   5978274500                       # number of demand (read+write) MSHR miss ticks (Tick)
system.l2.demandMshrMissLatency::total     6023546000                       # number of demand (read+write) MSHR miss ticks (Tick)
system.l2.overallMshrMissLatency::cpu.inst     45271500                       # number of overall MSHR miss ticks (Tick)
system.l2.overallMshrMissLatency::cpu.data   5978274500                       # number of overall MSHR miss ticks (Tick)
system.l2.overallMshrMissLatency::total    6023546000                       # number of overall MSHR miss ticks (Tick)
system.l2.demandMshrMissRate::cpu.inst       0.001511                       # mshr miss ratio for demand accesses (Ratio)
system.l2.demandMshrMissRate::cpu.data       0.737234                       # mshr miss ratio for demand accesses (Ratio)
system.l2.demandMshrMissRate::total          0.154394                       # mshr miss ratio for demand accesses (Ratio)
system.l2.overallMshrMissRate::cpu.inst      0.001511                       # mshr miss ratio for overall accesses (Ratio)
system.l2.overallMshrMissRate::cpu.data      0.737234                       # mshr miss ratio for overall accesses (Ratio)
system.l2.overallMshrMissRate::total         0.154394                       # mshr miss ratio for overall accesses (Ratio)
system.l2.demandAvgMshrMissLatency::cpu.inst 67068.888889                       # average overall mshr miss latency ((Tick/Count))
system.l2.demandAvgMshrMissLatency::cpu.data 69196.996354                       # average overall mshr miss latency ((Tick/Count))
system.l2.demandAvgMshrMissLatency::total 69180.498450                       # average overall mshr miss latency ((Tick/Count))
system.l2.overallAvgMshrMissLatency::cpu.inst 67068.888889                       # average overall mshr miss latency ((Tick/Count))
system.l2.overallAvgMshrMissLatency::cpu.data 69196.996354                       # average overall mshr miss latency ((Tick/Count))
system.l2.overallAvgMshrMissLatency::total 69180.498450                       # average overall mshr miss latency ((Tick/Count))
system.l2.replacements                          54350                       # number of replacements (Count)
system.l2.CleanEvict.mshrMisses::writebacks           11                       # number of CleanEvict MSHR misses (Count)
system.l2.CleanEvict.mshrMisses::total             11                       # number of CleanEvict MSHR misses (Count)
system.l2.CleanEvict.mshrMissRate::writebacks          inf                       # mshr miss rate for CleanEvict accesses (Ratio)
system.l2.CleanEvict.mshrMissRate::total          inf                       # mshr miss rate for CleanEvict accesses (Ratio)
system.l2.InvalidateReq.misses::cpu.data           14                       # number of InvalidateReq misses (Count)
system.l2.InvalidateReq.misses::total              14                       # number of InvalidateReq misses (Count)
system.l2.InvalidateReq.accesses::cpu.data           14                       # number of InvalidateReq accesses(hits+misses) (Count)
system.l2.InvalidateReq.accesses::total            14                       # number of InvalidateReq accesses(hits+misses) (Count)
system.l2.InvalidateReq.missRate::cpu.data            1                       # miss rate for InvalidateReq accesses (Ratio)
system.l2.InvalidateReq.missRate::total             1                       # miss rate for InvalidateReq accesses (Ratio)
system.l2.InvalidateReq.mshrMisses::cpu.data           14                       # number of InvalidateReq MSHR misses (Count)
system.l2.InvalidateReq.mshrMisses::total           14                       # number of InvalidateReq MSHR misses (Count)
system.l2.InvalidateReq.mshrMissLatency::cpu.data       266000                       # number of InvalidateReq MSHR miss ticks (Tick)
system.l2.InvalidateReq.mshrMissLatency::total       266000                       # number of InvalidateReq MSHR miss ticks (Tick)
system.l2.InvalidateReq.mshrMissRate::cpu.data            1                       # mshr miss rate for InvalidateReq accesses (Ratio)
system.l2.InvalidateReq.mshrMissRate::total            1                       # mshr miss rate for InvalidateReq accesses (Ratio)
system.l2.InvalidateReq.avgMshrMissLatency::cpu.data        19000                       # average InvalidateReq mshr miss latency ((Tick/Count))
system.l2.InvalidateReq.avgMshrMissLatency::total        19000                       # average InvalidateReq mshr miss latency ((Tick/Count))
system.l2.ReadCleanReq.hits::cpu.inst          446082                       # number of ReadCleanReq hits (Count)
system.l2.ReadCleanReq.hits::total             446082                       # number of ReadCleanReq hits (Count)
system.l2.ReadCleanReq.misses::cpu.inst           675                       # number of ReadCleanReq misses (Count)
system.l2.ReadCleanReq.misses::total              675                       # number of ReadCleanReq misses (Count)
system.l2.ReadCleanReq.missLatency::cpu.inst     52021500                       # number of ReadCleanReq miss ticks (Tick)
system.l2.ReadCleanReq.missLatency::total     52021500                       # number of ReadCleanReq miss ticks (Tick)
system.l2.ReadCleanReq.accesses::cpu.inst       446757                       # number of ReadCleanReq accesses(hits+misses) (Count)
system.l2.ReadCleanReq.accesses::total         446757                       # number of ReadCleanReq accesses(hits+misses) (Count)
system.l2.ReadCleanReq.missRate::cpu.inst     0.001511                       # miss rate for ReadCleanReq accesses (Ratio)
system.l2.ReadCleanReq.missRate::total       0.001511                       # miss rate for ReadCleanReq accesses (Ratio)
system.l2.ReadCleanReq.avgMissLatency::cpu.inst 77068.888889                       # average ReadCleanReq miss latency ((Tick/Count))
system.l2.ReadCleanReq.avgMissLatency::total 77068.888889                       # average ReadCleanReq miss latency ((Tick/Count))
system.l2.ReadCleanReq.mshrMisses::cpu.inst          675                       # number of ReadCleanReq MSHR misses (Count)
system.l2.ReadCleanReq.mshrMisses::total          675                       # number of ReadCleanReq MSHR misses (Count)
system.l2.ReadCleanReq.mshrMissLatency::cpu.inst     45271500                       # number of ReadCleanReq MSHR miss ticks (Tick)
system.l2.ReadCleanReq.mshrMissLatency::total     45271500                       # number of ReadCleanReq MSHR miss ticks (Tick)
system.l2.ReadCleanReq.mshrMissRate::cpu.inst     0.001511                       # mshr miss rate for ReadCleanReq accesses (Ratio)
system.l2.ReadCleanReq.mshrMissRate::total     0.001511                       # mshr miss rate for ReadCleanReq accesses (Ratio)
system.l2.ReadCleanReq.avgMshrMissLatency::cpu.inst 67068.888889                       # average ReadCleanReq mshr miss latency ((Tick/Count))
system.l2.ReadCleanReq.avgMshrMissLatency::total 67068.888889                       # average ReadCleanReq mshr miss latency ((Tick/Count))
system.l2.ReadExReq.hits::cpu.data                818                       # number of ReadExReq hits (Count)
system.l2.ReadExReq.hits::total                   818                       # number of ReadExReq hits (Count)
system.l2.ReadExReq.misses::cpu.data            76593                       # number of ReadExReq misses (Count)
system.l2.ReadExReq.misses::total               76593                       # number of ReadExReq misses (Count)
system.l2.ReadExReq.missLatency::cpu.data   6014329000                       # number of ReadExReq miss ticks (Tick)
system.l2.ReadExReq.missLatency::total     6014329000                       # number of ReadExReq miss ticks (Tick)
system.l2.ReadExReq.accesses::cpu.data          77411                       # number of ReadExReq accesses(hits+misses) (Count)
system.l2.ReadExReq.accesses::total             77411                       # number of ReadExReq accesses(hits+misses) (Count)
system.l2.ReadExReq.missRate::cpu.data       0.989433                       # miss rate for ReadExReq accesses (Ratio)
system.l2.ReadExReq.missRate::total          0.989433                       # miss rate for ReadExReq accesses (Ratio)
system.l2.ReadExReq.avgMissLatency::cpu.data 78523.220138                       # average ReadExReq miss latency ((Tick/Count))
system.l2.ReadExReq.avgMissLatency::total 78523.220138                       # average ReadExReq miss latency ((Tick/Count))
system.l2.ReadExReq.mshrMisses::cpu.data        76593                       # number of ReadExReq MSHR misses (Count)
system.l2.ReadExReq.mshrMisses::total           76593                       # number of ReadExReq MSHR misses (Count)
system.l2.ReadExReq.mshrMissLatency::cpu.data   5248399000                       # number of ReadExReq MSHR miss ticks (Tick)
system.l2.ReadExReq.mshrMissLatency::total   5248399000                       # number of ReadExReq MSHR miss ticks (Tick)
system.l2.ReadExReq.mshrMissRate::cpu.data     0.989433                       # mshr miss rate for ReadExReq accesses (Ratio)
system.l2.ReadExReq.mshrMissRate::total      0.989433                       # mshr miss rate for ReadExReq accesses (Ratio)
system.l2.ReadExReq.avgMshrMissLatency::cpu.data 68523.220138                       # average ReadExReq mshr miss latency ((Tick/Count))
system.l2.ReadExReq.avgMshrMissLatency::total 68523.220138                       # average ReadExReq mshr miss latency ((Tick/Count))
system.l2.ReadSharedReq.hits::cpu.data          29975                       # number of ReadSharedReq hits (Count)
system.l2.ReadSharedReq.hits::total             29975                       # number of ReadSharedReq hits (Count)
system.l2.ReadSharedReq.misses::cpu.data         9802                       # number of ReadSharedReq misses (Count)
system.l2.ReadSharedReq.misses::total            9802                       # number of ReadSharedReq misses (Count)
system.l2.ReadSharedReq.missLatency::cpu.data    827895500                       # number of ReadSharedReq miss ticks (Tick)
system.l2.ReadSharedReq.missLatency::total    827895500                       # number of ReadSharedReq miss ticks (Tick)
system.l2.ReadSharedReq.accesses::cpu.data        39777                       # number of ReadSharedReq accesses(hits+misses) (Count)
system.l2.ReadSharedReq.accesses::total         39777                       # number of ReadSharedReq accesses(hits+misses) (Count)
system.l2.ReadSharedReq.missRate::cpu.data     0.246424                       # miss rate for ReadSharedReq accesses (Ratio)
system.l2.ReadSharedReq.missRate::total      0.246424                       # miss rate for ReadSharedReq accesses (Ratio)
system.l2.ReadSharedReq.avgMissLatency::cpu.data 84461.895532                       # average ReadSharedReq miss latency ((Tick/Count))
system.l2.ReadSharedReq.avgMissLatency::total 84461.895532                       # average ReadSharedReq miss latency ((Tick/Count))
system.l2.ReadSharedReq.mshrMisses::cpu.data         9802                       # number of ReadSharedReq MSHR misses (Count)
system.l2.ReadSharedReq.mshrMisses::total         9802                       # number of ReadSharedReq MSHR misses (Count)
system.l2.ReadSharedReq.mshrMissLatency::cpu.data    729875500                       # number of ReadSharedReq MSHR miss ticks (Tick)
system.l2.ReadSharedReq.mshrMissLatency::total    729875500                       # number of ReadSharedReq MSHR miss ticks (Tick)
system.l2.ReadSharedReq.mshrMissRate::cpu.data     0.246424                       # mshr miss rate for ReadSharedReq accesses (Ratio)
system.l2.ReadSharedReq.mshrMissRate::total     0.246424                       # mshr miss rate for ReadSharedReq accesses (Ratio)
system.l2.ReadSharedReq.avgMshrMissLatency::cpu.data 74461.895532                       # average ReadSharedReq mshr miss latency ((Tick/Count))
system.l2.ReadSharedReq.avgMshrMissLatency::total 74461.895532                       # average ReadSharedReq mshr miss latency ((Tick/Count))
system.l2.WritebackClean.hits::writebacks       446315                       # number of WritebackClean hits (Count)
system.l2.WritebackClean.hits::total           446315                       # number of WritebackClean hits (Count)
system.l2.WritebackClean.accesses::writebacks       446315                       # number of WritebackClean accesses(hits+misses) (Count)
system.l2.WritebackClean.accesses::total       446315                       # number of WritebackClean accesses(hits+misses) (Count)
system.l2.WritebackDirty.hits::writebacks       105331                       # number of WritebackDirty hits (Count)
system.l2.WritebackDirty.hits::total           105331                       # number of WritebackDirty hits (Count)
system.l2.WritebackDirty.accesses::writebacks       105331                       # number of WritebackDirty accesses(hits+misses) (Count)
system.l2.WritebackDirty.accesses::total       105331                       # number of WritebackDirty accesses(hits+misses) (Count)
system.l2.power_state.pwrStateResidencyTicks::UNDEFINED  68252344000                       # Cumulative time (in ticks) in various power states (Tick)
system.l2.tags.tagsInUse                 31006.627524                       # Average ticks per tags in use ((Tick/Count))
system.l2.tags.totalRefs                      1126937                       # Total number of references to valid blocks. (Count)
system.l2.tags.sampledRefs                      87118                       # Sample count of references to valid blocks. (Count)
system.l2.tags.avgRefs                      12.935754                       # Average number of references to valid blocks. ((Count/Count))
system.l2.tags.warmupTick                       77000                       # The tick when the warmup percentage was hit. (Tick)
system.l2.tags.occupancies::writebacks      21.035854                       # Average occupied blocks per tick, per requestor ((Count/Tick))
system.l2.tags.occupancies::cpu.inst        89.180869                       # Average occupied blocks per tick, per requestor ((Count/Tick))
system.l2.tags.occupancies::cpu.data     30896.410802                       # Average occupied blocks per tick, per requestor ((Count/Tick))
system.l2.tags.avgOccs::writebacks           0.000642                       # Average percentage of cache occupancy ((Ratio/Tick))
system.l2.tags.avgOccs::cpu.inst             0.002722                       # Average percentage of cache occupancy ((Ratio/Tick))
system.l2.tags.avgOccs::cpu.data             0.942884                       # Average percentage of cache occupancy ((Ratio/Tick))
system.l2.tags.avgOccs::total                0.946247                       # Average percentage of cache occupancy ((Ratio/Tick))
system.l2.tags.occupanciesTaskId::1024          32768                       # Occupied blocks per task id (Count)
system.l2.tags.ageTaskId_1024::0                    9                       # Occupied blocks per task id, per block age (Count)
system.l2.tags.ageTaskId_1024::1                   70                       # Occupied blocks per task id, per block age (Count)
system.l2.tags.ageTaskId_1024::2                  879                       # Occupied blocks per task id, per block age (Count)
system.l2.tags.ageTaskId_1024::3                 8499                       # Occupied blocks per task id, per block age (Count)
system.l2.tags.ageTaskId_1024::4                23311                       # Occupied blocks per task id, per block age (Count)
system.l2.tags.ratioOccsTaskId::1024                1                       # Ratio of occupied blocks and all blocks, per task id (Ratio)
system.l2.tags.tagAccesses                    9102814                       # Number of tag accesses (Count)
system.l2.tags.dataAccesses                   9102814                       # Number of data accesses (Count)
system.l2.tags.power_state.pwrStateResidencyTicks::UNDEFINED  68252344000                       # Cumulative time (in ticks) in various power states (Tick)
[...]
system.mem_ctrls.dram.perBankWrBursts::12         3337                       # Per bank write bursts (Count)
system.mem_ctrls.dram.perBankWrBursts::13         3378                       # Per bank write bursts (Count)
system.mem_ctrls.dram.perBankWrBursts::14         3230                       # Per bank write bursts (Count)
system.mem_ctrls.dram.perBankWrBursts::15         3288                       # Per bank write bursts (Count)
system.mem_ctrls.dram.totQLat               815532500                       # Total ticks spent queuing (Tick)
system.mem_ctrls.dram.totBusLat             435330000                       # Total ticks spent in databus transfers (Tick)
system.mem_ctrls.dram.totMemAccLat         2448020000                       # Total ticks spent from burst creation until serviced by the DRAM (Tick)
system.mem_ctrls.dram.avgQLat                 9366.83                       # Average queueing delay per DRAM burst ((Tick/Count))
system.mem_ctrls.dram.avgBusLat               5000.00                       # Average bus latency per DRAM burst ((Tick/Count))
system.mem_ctrls.dram.avgMemAccLat           28116.83                       # Average memory access latency per DRAM burst ((Tick/Count))
system.mem_ctrls.dram.readRowHits               67482                       # Number of row buffer hits during reads (Count)
system.mem_ctrls.dram.writeRowHits              41266                       # Number of row buffer hits during writes (Count)
system.mem_ctrls.dram.readRowHitRate            77.51                       # Row buffer hit rate for reads (Ratio)
system.mem_ctrls.dram.writeRowHitRate           77.08                       # Row buffer hit rate for writes (Ratio)
system.mem_ctrls.dram.bytesPerActivate::samples        31848                       # Bytes accessed per row activation (Byte)
system.mem_ctrls.dram.bytesPerActivate::mean   282.534037                       # Bytes accessed per row activation (Byte)
system.mem_ctrls.dram.bytesPerActivate::gmean   177.062849                       # Bytes accessed per row activation (Byte)
system.mem_ctrls.dram.bytesPerActivate::stdev   281.367835                       # Bytes accessed per row activation (Byte)
system.mem_ctrls.dram.bytesPerActivate::0-127        12817     40.24%     40.24% # Bytes accessed per row activation (Byte)
system.mem_ctrls.dram.bytesPerActivate::128-255         4734     14.86%     55.11% # Bytes accessed per row activation (Byte)
system.mem_ctrls.dram.bytesPerActivate::256-383         4439     13.94%     69.05% # Bytes accessed per row activation (Byte)
system.mem_ctrls.dram.bytesPerActivate::384-511         4597     14.43%     83.48% # Bytes accessed per row activation (Byte)
system.mem_ctrls.dram.bytesPerActivate::512-639         1238      3.89%     87.37% # Bytes accessed per row activation (Byte)
system.mem_ctrls.dram.bytesPerActivate::640-767          747      2.35%     89.71% # Bytes accessed per row activation (Byte)
system.mem_ctrls.dram.bytesPerActivate::768-895          550      1.73%     91.44% # Bytes accessed per row activation (Byte)
system.mem_ctrls.dram.bytesPerActivate::896-1023          626      1.97%     93.41% # Bytes accessed per row activation (Byte)
system.mem_ctrls.dram.bytesPerActivate::1024-1151         2100      6.59%    100.00% # Bytes accessed per row activation (Byte)
system.mem_ctrls.dram.bytesPerActivate::total        31848                       # Bytes accessed per row activation (Byte)
system.mem_ctrls.dram.bytesRead               5572224                       # Total bytes read (Byte)
system.mem_ctrls.dram.bytesWritten            3426176                       # Total bytes written (Byte)
system.mem_ctrls.dram.avgRdBW               81.641504                       # Average DRAM read bandwidth in MiBytes/s ((Byte/Second))
system.mem_ctrls.dram.avgWrBW               50.198657                       # Average DRAM write bandwidth in MiBytes/s ((Byte/Second))
system.mem_ctrls.dram.peakBW                 12800.00                       # Theoretical peak bandwidth in MiByte/s ((Byte/Second))
system.mem_ctrls.dram.busUtil                    1.03                       # Data bus utilization in percentage (Ratio)
system.mem_ctrls.dram.busUtilRead                0.64                       # Data bus utilization in percentage for reads (Ratio)
system.mem_ctrls.dram.busUtilWrite               0.39                       # Data bus utilization in percentage for writes (Ratio)
system.mem_ctrls.dram.pageHitRate               77.35                       # Row buffer hit rate, read and write combined (Ratio)
system.mem_ctrls.dram.power_state.pwrStateResidencyTicks::UNDEFINED  68252344000                       # Cumulative time (in ticks) in various power states (Tick)
system.mem_ctrls.dram.rank0.actEnergy       113754480                       # Energy for activate commands per rank (pJ) (Joule)
system.mem_ctrls.dram.rank0.preEnergy        60454350                       # Energy for precharge commands per rank (pJ) (Joule)
system.mem_ctrls.dram.rank0.readEnergy      310689960                       # Energy for read commands per rank (pJ) (Joule)
system.mem_ctrls.dram.rank0.writeEnergy     139128660                       # Energy for write commands per rank (pJ) (Joule)
system.mem_ctrls.dram.rank0.refreshEnergy 5387319600.000001                       # Energy for refresh commands per rank (pJ) (Joule)
system.mem_ctrls.dram.rank0.actBackEnergy  17627464890                       # Energy for active background per rank (pJ) (Joule)
system.mem_ctrls.dram.rank0.preBackEnergy  11364719520                       # Energy for precharge background per rank (pJ) (Joule)
system.mem_ctrls.dram.rank0.actPowerDownEnergy            0                       # Energy for active power-down per rank (pJ) (Joule)
system.mem_ctrls.dram.rank0.prePowerDownEnergy            0                       # Energy for precharge power-down per rank (pJ) (Joule)
system.mem_ctrls.dram.rank0.selfRefreshEnergy            0                       # Energy for self refresh per rank (pJ) (Joule)
system.mem_ctrls.dram.rank0.totalEnergy   35003531460                       # Total energy per rank (pJ) (Joule)
system.mem_ctrls.dram.rank0.averagePower   512.854642                       # Core power per rank (mW) (Watt)
system.mem_ctrls.dram.rank0.totalIdleTime            0                       # Total Idle time Per DRAM Rank (Tick)
system.mem_ctrls.dram.rank0.pwrStateTime::IDLE  29365529250                       # Time in different power states (Tick)
system.mem_ctrls.dram.rank0.pwrStateTime::REF   2278900000                       # Time in different power states (Tick)
system.mem_ctrls.dram.rank0.pwrStateTime::SREF            0                       # Time in different power states (Tick)
system.mem_ctrls.dram.rank0.pwrStateTime::PRE_PDN            0                       # Time in different power states (Tick)
system.mem_ctrls.dram.rank0.pwrStateTime::ACT  36607914750                       # Time in different power states (Tick)
system.mem_ctrls.dram.rank0.pwrStateTime::ACT_PDN            0                       # Time in different power states (Tick)
system.mem_ctrls.dram.rank1.actEnergy       113668800                       # Energy for activate commands per rank (pJ) (Joule)
system.mem_ctrls.dram.rank1.preEnergy        60408810                       # Energy for precharge commands per rank (pJ) (Joule)
system.mem_ctrls.dram.rank1.readEnergy      310961280                       # Energy for read commands per rank (pJ) (Joule)
system.mem_ctrls.dram.rank1.writeEnergy     140318820                       # Energy for write commands per rank (pJ) (Joule)
system.mem_ctrls.dram.rank1.refreshEnergy 5387319600.000001                       # Energy for refresh commands per rank (pJ) (Joule)
system.mem_ctrls.dram.rank1.actBackEnergy  17630615280                       # Energy for active background per rank (pJ) (Joule)
system.mem_ctrls.dram.rank1.preBackEnergy  11362066560                       # Energy for precharge background per rank (pJ) (Joule)
system.mem_ctrls.dram.rank1.actPowerDownEnergy            0                       # Energy for active power-down per rank (pJ) (Joule)
system.mem_ctrls.dram.rank1.prePowerDownEnergy            0                       # Energy for precharge power-down per rank (pJ) (Joule)
system.mem_ctrls.dram.rank1.selfRefreshEnergy            0                       # Energy for self refresh per rank (pJ) (Joule)
system.mem_ctrls.dram.rank1.totalEnergy   35005359150                       # Total energy per rank (pJ) (Joule)
system.mem_ctrls.dram.rank1.averagePower   512.881421                       # Core power per rank (mW) (Watt)
system.mem_ctrls.dram.rank1.totalIdleTime            0                       # Total Idle time Per DRAM Rank (Tick)
system.mem_ctrls.dram.rank1.pwrStateTime::IDLE  29358164000                       # Time in different power states (Tick)
system.mem_ctrls.dram.rank1.pwrStateTime::REF   2278900000                       # Time in different power states (Tick)
system.mem_ctrls.dram.rank1.pwrStateTime::SREF            0                       # Time in different power states (Tick)
system.mem_ctrls.dram.rank1.pwrStateTime::PRE_PDN            0                       # Time in different power states (Tick)
system.mem_ctrls.dram.rank1.pwrStateTime::ACT  36615280000                       # Time in different power states (Tick)
system.mem_ctrls.dram.rank1.pwrStateTime::ACT_PDN            0                       # Time in different power states (Tick)
system.mem_ctrls.power_state.pwrStateResidencyTicks::UNDEFINED  68252344000                       # Cumulative time (in ticks) in various power states (Tick)
system.membus.transDist::ReadResp               10477                       # Transaction distribution (Count)
system.membus.transDist::WritebackDirty         53550                       # Transaction distribution (Count)
system.membus.transDist::CleanEvict               321                       # Transaction distribution (Count)
system.membus.transDist::ReadExReq              76593                       # Transaction distribution (Count)
system.membus.transDist::ReadExResp             76593                       # Transaction distribution (Count)
system.membus.transDist::ReadSharedReq          10477                       # Transaction distribution (Count)
system.membus.transDist::InvalidateReq             14                       # Transaction distribution (Count)
system.membus.pktCount_system.l2.mem_side_port::system.mem_ctrls.port       228025                       # Packet count per connected requestor and responder (Count)
system.membus.pktCount::total                  228025                       # Packet count per connected requestor and responder (Count)
system.membus.pktSize_system.l2.mem_side_port::system.mem_ctrls.port      8999680                       # Cumulative packet size per connected requestor and responder (Byte)
system.membus.pktSize::total                  8999680                       # Cumulative packet size per connected requestor and responder (Byte)
system.membus.snoops                                0                       # Total snoops (Count)
system.membus.snoopTraffic                          0                       # Total snoop traffic (Byte)
system.membus.snoopFanout::samples              87084                       # Request fanout histogram (Count)
system.membus.snoopFanout::mean                     0                       # Request fanout histogram (Count)
system.membus.snoopFanout::stdev                    0                       # Request fanout histogram (Count)
system.membus.snoopFanout::underflows               0      0.00%      0.00% # Request fanout histogram (Count)
system.membus.snoopFanout::0                    87084    100.00%    100.00% # Request fanout histogram (Count)
system.membus.snoopFanout::1                        0      0.00%    100.00% # Request fanout histogram (Count)
system.membus.snoopFanout::overflows                0      0.00%    100.00% # Request fanout histogram (Count)
system.membus.snoopFanout::min_value                0                       # Request fanout histogram (Count)
system.membus.snoopFanout::max_value                0                       # Request fanout histogram (Count)
system.membus.snoopFanout::total                87084                       # Request fanout histogram (Count)
system.membus.power_state.pwrStateResidencyTicks::UNDEFINED  68252344000                       # Cumulative time (in ticks) in various power states (Tick)
system.membus.reqLayer0.occupancy           375938500                       # Layer occupancy (ticks) (Tick)
system.membus.reqLayer0.utilization               0.0                       # Layer utilization (Ratio)
system.membus.respLayer1.occupancy          461524500                       # Layer occupancy (ticks) (Tick)
system.membus.respLayer1.utilization              0.0                       # Layer utilization (Ratio)
system.membus.snoop_filter.totRequests         140955                       # Total number of requests made to the snoop filter. (Count)
system.membus.snoop_filter.hitSingleRequests        53871                       # Number of requests hitting in the snoop filter with a single holder of the requested data. (Count)
system.membus.snoop_filter.hitMultiRequests            0                       # Number of requests hitting in the snoop filter with multiple (>1) holders of the requested data. (Count)
system.membus.snoop_filter.totSnoops                0                       # Total number of snoops made to the snoop filter. (Count)
system.membus.snoop_filter.hitSingleSnoops            0                       # Number of snoops hitting in the snoop filter with a single holder of the requested data. (Count)
system.membus.snoop_filter.hitMultiSnoops            0                       # Number of snoops hitting in the snoop filter with multiple (>1) holders of the requested data. (Count)
system.tol2bus.transDist::ReadResp             486534                       # Transaction distribution (Count)
system.tol2bus.transDist::WritebackDirty       158881                       # Transaction distribution (Count)
system.tol2bus.transDist::WritebackClean       446315                       # Transaction distribution (Count)
system.tol2bus.transDist::CleanEvict            12159                       # Transaction distribution (Count)
system.tol2bus.transDist::ReadExReq             77411                       # Transaction distribution (Count)
system.tol2bus.transDist::ReadExResp            77411                       # Transaction distribution (Count)
system.tol2bus.transDist::ReadCleanReq         446757                       # Transaction distribution (Count)
system.tol2bus.transDist::ReadSharedReq         39777                       # Transaction distribution (Count)
system.tol2bus.transDist::InvalidateReq            14                       # Transaction distribution (Count)
system.tol2bus.transDist::InvalidateResp           14                       # Transaction distribution (Count)
system.tol2bus.pktCount_system.cpu.icache.mem_side_port::system.l2.cpu_side_port      1339829                       # Packet count per connected requestor and responder (Count)
system.tol2bus.pktCount_system.cpu.dcache.mem_side_port::system.l2.cpu_side_port       351094                       # Packet count per connected requestor and responder (Count)
system.tol2bus.pktCount::total                1690923                       # Packet count per connected requestor and responder (Count)
system.tol2bus.pktSize_system.cpu.icache.mem_side_port::system.l2.cpu_side_port     57156608                       # Cumulative packet size per connected requestor and responder (Byte)
system.tol2bus.pktSize_system.cpu.dcache.mem_side_port::system.l2.cpu_side_port     14241216                       # Cumulative packet size per connected requestor and responder (Byte)
system.tol2bus.pktSize::total                71397824                       # Cumulative packet size per connected requestor and responder (Byte)
system.tol2bus.snoops                           54350                       # Total snoops (Count)
system.tol2bus.snoopTraffic                   3427200                       # Total snoop traffic (Byte)
system.tol2bus.snoopFanout::samples            618309                       # Request fanout histogram (Count)
system.tol2bus.snoopFanout::mean             0.000796                       # Request fanout histogram (Count)
system.tol2bus.snoopFanout::stdev            0.028197                       # Request fanout histogram (Count)
system.tol2bus.snoopFanout::underflows              0      0.00%      0.00% # Request fanout histogram (Count)
system.tol2bus.snoopFanout::0                  617817     99.92%     99.92% # Request fanout histogram (Count)
system.tol2bus.snoopFanout::1                     492      0.08%    100.00% # Request fanout histogram (Count)
system.tol2bus.snoopFanout::2                       0      0.00%    100.00% # Request fanout histogram (Count)
system.tol2bus.snoopFanout::overflows               0      0.00%    100.00% # Request fanout histogram (Count)
system.tol2bus.snoopFanout::min_value               0                       # Request fanout histogram (Count)
system.tol2bus.snoopFanout::max_value               1                       # Request fanout histogram (Count)
system.tol2bus.snoopFanout::total              618309                       # Request fanout histogram (Count)
system.tol2bus.power_state.pwrStateResidencyTicks::UNDEFINED  68252344000                       # Cumulative time (in ticks) in various power states (Tick)
system.tol2bus.reqLayer0.occupancy         1115128000                       # Layer occupancy (ticks) (Tick)
system.tol2bus.reqLayer0.utilization              0.0                       # Layer utilization (Ratio)
system.tol2bus.respLayer0.occupancy         670135500                       # Layer occupancy (ticks) (Tick)
system.tol2bus.respLayer0.utilization             0.0                       # Layer utilization (Ratio)
system.tol2bus.respLayer1.occupancy         175789000                       # Layer occupancy (ticks) (Tick)
system.tol2bus.respLayer1.utilization             0.0                       # Layer utilization (Ratio)
system.tol2bus.snoop_filter.totRequests       1126964                       # Total number of requests made to the snoop filter. (Count)
system.tol2bus.snoop_filter.hitSingleRequests       563005                       # Number of requests hitting in the snoop filter with a single holder of the requested data. (Count)
system.tol2bus.snoop_filter.hitMultiRequests            2                       # Number of requests hitting in the snoop filter with multiple (>1) holders of the requested data. (Count)
system.tol2bus.snoop_filter.totSnoops             490                       # Total number of snoops made to the snoop filter. (Count)
system.tol2bus.snoop_filter.hitSingleSnoops          490                       # Number of snoops hitting in the snoop filter with a single holder of the requested data. (Count)
system.tol2bus.snoop_filter.hitMultiSnoops            0                       # Number of snoops hitting in the snoop filter with multiple (>1) holders of the requested data. (Count)
system.voltage_domain.voltage                       1                       # Voltage in Volts (Volt)
system.workload.inst.arm                            0                       # number of arm instructions executed (Count)
system.workload.inst.quiesce                        0                       # number of quiesce instructions executed (Count)
system.cpu.idleCycles                        13126824                       # Total number of cycles that the object has spent stopped (Unspecified)
system.cpu.tickCycles                       123377864                       # Number of cycles that the object actually ticked (Unspecified)

---------- End Simulation Statistics   ----------
