
---------- Begin Simulation Statistics ----------
simSeconds                                   0.066032                       # Number of seconds simulated (Second)
simTicks                                  66032189500                       # Number of ticks simulated (Tick)
finalTick                                 66032189500                       # Number of ticks from beginning of simulation (restored from checkpoints and never reset) (Tick)
simFreq                                  1000000000000                       # The number of ticks per simulated second ((Tick/Second))
hostSeconds                                    401.12                       # Real time elapsed on the host (Second)
hostTickRate                                164617701                       # The number of ticks simulated per host second (ticks/s) ((Tick/Second))
hostMemory                                     703272                       # Number of bytes of host memory used (Byte)
simInsts                                    100000001                       # Number of instructions simulated (Count)
simOps                                      111671835                       # Number of ops (including micro ops) simulated (Count)
hostInstRate                                   249299                       # Simulator instruction rate (inst/s) ((Count/Second))
hostOpRate                                     278397                       # Simulator op (including micro ops) rate (op/s) ((Count/Second))
system.clk_domain.clock                          1000                       # Clock period in ticks (Tick)
system.cpu.numCycles                        132064379                       # Number of cpu cycles simulated (Cycle)
system.cpu.numWorkItemsStarted                      0                       # Number of work items this cpu started (Count)
system.cpu.numWorkItemsCompleted                    0                       # Number of work items this cpu completed (Count)
system.cpu.numInsts                         100000001                       # Number of instructions committed (Count)
system.cpu.numOps                           111671835                       # Number of ops (including micro ops) committed (Count)
system.cpu.numDiscardedOps                     341433                       # Number of ops (including micro ops) which were discarded before commit (Count)
system.cpu.numFetchSuspends                         0                       # Number of times Execute suspended instruction fetching (Count)
system.cpu.cpi                               1.320644                       # CPI: cycles per instruction ((Cycle/Count))
system.cpu.ipc                               0.757206                       # IPC: instructions per cycle ((Count/Cycle))
system.cpu.committedInstType_0::No_OpClass       148693      0.13%      0.13% # Class of committed instruction (Count)
system.cpu.committedInstType_0::IntAlu       74437422     66.66%     66.79% # Class of committed instruction (Count)
system.cpu.committedInstType_0::IntMult        470571      0.42%     67.21% # Class of committed instruction (Count)
system.cpu.committedInstType_0::IntDiv              4      0.00%     67.21% # Class of committed instruction (Count)
system.cpu.committedInstType_0::FloatAdd            0      0.00%     67.21% # Class of committed instruction (Count)
system.cpu.committedInstType_0::FloatCmp            0      0.00%     67.21% # Class of committed instruction (Count)
system.cpu.committedInstType_0::FloatCvt            0      0.00%     67.21% # Class of committed instruction (Count)
system.cpu.committedInstType_0::FloatMult            0      0.00%     67.21% # Class of committed instruction (Count)
system.cpu.committedInstType_0::FloatMultAcc            0      0.00%     67.21% # Class of committed instruction (Count)
system.cpu.committedInstType_0::FloatDiv            0      0.00%     67.21% # Class of committed instruction (Count)
system.cpu.committedInstType_0::FloatMisc       120142      0.11%     67.32% # Class of committed instruction (Count)
system.cpu.committedInstType_0::FloatSqrt            0      0.00%     67.32% # Class of committed instruction (Count)
system.cpu.committedInstType_0::SimdAdd         84837      0.08%     67.40% # Class of committed instruction (Count)
system.cpu.committedInstType_0::SimdAddAcc            0      0.00%     67.40% # Class of committed instruction (Count)
system.cpu.committedInstType_0::SimdAlu         84847      0.08%     67.47% # Class of committed instruction (Count)
system.cpu.committedInstType_0::SimdCmp        120289      0.11%     67.58% # Class of committed instruction (Count)
system.cpu.committedInstType_0::SimdCvt             0      0.00%     67.58% # Class of committed instruction (Count)
system.cpu.committedInstType_0::SimdMisc        99203      0.09%     67.67% # Class of committed instruction (Count)
system.cpu.committedInstType_0::SimdMult            0      0.00%     67.67% # Class of committed instruction (Count)
system.cpu.committedInstType_0::SimdMultAcc            0      0.00%     67.67% # Class of committed instruction (Count)
system.cpu.committedInstType_0::SimdShift            0      0.00%     67.67% # Class of committed instruction (Count)
system.cpu.committedInstType_0::SimdShiftAcc            0      0.00%     67.67% # Class of committed instruction (Count)
system.cpu.committedInstType_0::SimdDiv             0      0.00%     67.67% # Class of committed instruction (Count)
system.cpu.committedInstType_0::SimdSqrt            0      0.00%     67.67% # Class of committed instruction (Count)
system.cpu.committedInstType_0::SimdFloatAdd            0      0.00%     67.67% # Class of committed instruction (Count)
system.cpu.committedInstType_0::SimdFloatAlu            0      0.00%     67.67% # Class of committed instruction (Count)
system.cpu.committedInstType_0::SimdFloatCmp            0      0.00%     67.67% # Class of committed instruction (Count)
system.cpu.committedInstType_0::SimdFloatCvt            0      0.00%     67.67% # Class of committed instruction (Count)
system.cpu.committedInstType_0::SimdFloatDiv            0      0.00%     67.67% # Class of committed instruction (Count)
system.cpu.committedInstType_0::SimdFloatMisc            0      0.00%     67.67% # Class of committed instruction (Count)
system.cpu.committedInstType_0::SimdFloatMult            0      0.00%     67.67% # Class of committed instruction (Count)
system.cpu.committedInstType_0::SimdFloatMultAcc            0      0.00%     67.67% # Class of committed instruction (Count)
system.cpu.committedInstType_0::SimdFloatSqrt            0      0.00%     67.67% # Class of committed instruction (Count)
system.cpu.committedInstType_0::SimdReduceAdd            0      0.00%     67.67% # Class of committed instruction (Count)
system.cpu.committedInstType_0::SimdReduceAlu            0      0.00%     67.67% # Class of committed instruction (Count)
system.cpu.committedInstType_0::SimdReduceCmp            0      0.00%     67.67% # Class of committed instruction (Count)
system.cpu.committedInstType_0::SimdFloatReduceAdd            0      0.00%     67.67% # Class of committed instruction (Count)
system.cpu.committedInstType_0::SimdFloatReduceCmp            0      0.00%     67.67% # Class of committed instruction (Count)
system.cpu.committedInstType_0::SimdAes             0      0.00%     67.67% # Class of committed instruction (Count)
system.cpu.committedInstType_0::SimdAesMix            0      0.00%     67.67% # Class of committed instruction (Count)
system.cpu.committedInstType_0::SimdSha1Hash            0      0.00%     67.67% # Class of committed instruction (Count)
system.cpu.committedInstType_0::SimdSha1Hash2            0      0.00%     67.67% # Class of committed instruction (Count)
system.cpu.committedInstType_0::SimdSha256Hash            0      0.00%     67.67% # Class of committed instruction (Count)
system.cpu.committedInstType_0::SimdSha256Hash2            0      0.00%     67.67% # Class of committed instruction (Count)
system.cpu.committedInstType_0::SimdShaSigma2            0      0.00%     67.67% # Class of committed instruction (Count)
system.cpu.committedInstType_0::SimdShaSigma3            0      0.00%     67.67% # Class of committed instruction (Count)
system.cpu.committedInstType_0::SimdPredAlu            0      0.00%     67.67% # Class of committed instruction (Count)
system.cpu.committedInstType_0::MemRead      19805982     17.74%     85.40% # Class of committed instruction (Count)
system.cpu.committedInstType_0::MemWrite     16299845     14.60%    100.00% # Class of committed instruction (Count)
system.cpu.committedInstType_0::FloatMemRead            0      0.00%    100.00% # Class of committed instruction (Count)
system.cpu.committedInstType_0::FloatMemWrite            0      0.00%    100.00% # Class of committed instruction (Count)
system.cpu.committedInstType_0::IprAccess            0      0.00%    100.00% # Class of committed instruction (Count)
system.cpu.committedInstType_0::InstPrefetch            0      0.00%    100.00% # Class of committed instruction (Count)
system.cpu.committedInstType_0::total       111671835                       # Class of committed instruction (Count)
system.cpu.branchPred.lookups                22130921                       # Number of BP lookups (Count)
system.cpu.branchPred.condPredicted          17576327                       # Number of conditional branches predicted (Count)
system.cpu.branchPred.condIncorrect             89543                       # Number of conditional branches incorrect (Count)
system.cpu.branchPred.BTBLookups              9022014                       # Number of BTB lookups (Count)
system.cpu.branchPred.BTBHits                 9020874                       # Number of BTB hits (Count)
system.cpu.branchPred.BTBHitRatio            0.999874                       # BTB Hit Ratio (Ratio)
system.cpu.branchPred.RASUsed                 1180605                       # Number of times the RAS was used to get a target. (Count)
system.cpu.branchPred.RASIncorrect                 32                       # Number of incorrect RAS predictions. (Count)
system.cpu.branchPred.indirectLookups          291851                       # Number of indirect predictor lookups. (Count)
system.cpu.branchPred.indirectHits             291668                       # Number of indirect target hits. (Count)
system.cpu.branchPred.indirectMisses              183                       # Number of indirect misses. (Count)
system.cpu.branchPred.indirectMispredicted          154                       # Number of mispredicted indirect branches. (Count)
system.cpu.dcache.demandHits::cpu.data       35826008                       # number of demand (read+write) hits (Count)
system.cpu.dcache.demandHits::total          35826008                       # number of demand (read+write) hits (Count)
system.cpu.dcache.overallHits::cpu.data      35826008                       # number of overall hits (Count)
system.cpu.dcache.overallHits::total         35826008                       # number of overall hits (Count)
system.cpu.dcache.demandMisses::cpu.data       174090                       # number of demand (read+write) misses (Count)
system.cpu.dcache.demandMisses::total          174090                       # number of demand (read+write) misses (Count)
system.cpu.dcache.overallMisses::cpu.data       174090                       # number of overall misses (Count)
system.cpu.dcache.overallMisses::total         174090                       # number of overall misses (Count)
system.cpu.dcache.demandMissLatency::cpu.data  12841893500                       # number of demand (read+write) miss ticks (Tick)
system.cpu.dcache.demandMissLatency::total  12841893500                       # number of demand (read+write) miss ticks (Tick)
system.cpu.dcache.overallMissLatency::cpu.data  12841893500                       # number of overall miss ticks (Tick)
system.cpu.dcache.overallMissLatency::total  12841893500                       # number of overall miss ticks (Tick)
system.cpu.dcache.demandAccesses::cpu.data     36000098                       # number of demand (read+write) accesses (Count)
system.cpu.dcache.demandAccesses::total      36000098                       # number of demand (read+write) accesses (Count)
system.cpu.dcache.overallAccesses::cpu.data     36000098                       # number of overall (read+write) accesses (Count)
system.cpu.dcache.overallAccesses::total     36000098                       # number of overall (read+write) accesses (Count)
system.cpu.dcache.demandMissRate::cpu.data     0.004836                       # miss rate for demand accesses (Ratio)
system.cpu.dcache.demandMissRate::total      0.004836                       # miss rate for demand accesses (Ratio)
system.cpu.dcache.overallMissRate::cpu.data     0.004836                       # miss rate for overall accesses (Ratio)
system.cpu.dcache.overallMissRate::total     0.004836                       # miss rate for overall accesses (Ratio)
system.cpu.dcache.demandAvgMissLatency::cpu.data 73765.830892                       # average overall miss latency in ticks ((Tick/Count))
system.cpu.dcache.demandAvgMissLatency::total 73765.830892                       # average overall miss latency in ticks ((Tick/Count))
system.cpu.dcache.overallAvgMissLatency::cpu.data 73765.830892                       # average overall miss latency ((Tick/Count))
system.cpu.dcache.overallAvgMissLatency::total 73765.830892                       # average overall miss latency ((Tick/Count))
system.cpu.dcache.blockedCycles::no_mshrs            0                       # number of cycles access was blocked (Cycle)
system.cpu.dcache.blockedCycles::no_targets            0                       # number of cycles access was blocked (Cycle)
system.cpu.dcache.blockedCauses::no_mshrs            0                       # number of times access was blocked (Count)
system.cpu.dcache.blockedCauses::no_targets            0                       # number of times access was blocked (Count)
system.cpu.dcache.avgBlocked::no_mshrs            nan                       # average number of cycles each access was blocked ((Cycle/Count))
system.cpu.dcache.avgBlocked::no_targets          nan                       # average number of cycles each access was blocked ((Cycle/Count))
system.cpu.dcache.writebacks::writebacks       160216                       # number of writebacks (Count)
system.cpu.dcache.writebacks::total            160216                       # number of writebacks (Count)
system.cpu.dcache.demandMshrHits::cpu.data         6408                       # number of demand (read+write) MSHR hits (Count)
system.cpu.dcache.demandMshrHits::total          6408                       # number of demand (read+write) MSHR hits (Count)
system.cpu.dcache.overallMshrHits::cpu.data         6408                       # number of overall MSHR hits (Count)
system.cpu.dcache.overallMshrHits::total         6408                       # number of overall MSHR hits (Count)
system.cpu.dcache.demandMshrMisses::cpu.data       167682                       # number of demand (read+write) MSHR misses (Count)
system.cpu.dcache.demandMshrMisses::total       167682                       # number of demand (read+write) MSHR misses (Count)
system.cpu.dcache.overallMshrMisses::cpu.data       167682                       # number of overall MSHR misses (Count)
system.cpu.dcache.overallMshrMisses::total       167682                       # number of overall MSHR misses (Count)
system.cpu.dcache.demandMshrMissLatency::cpu.data  12220363500                       # number of demand (read+write) MSHR miss ticks (Tick)
system.cpu.dcache.demandMshrMissLatency::total  12220363500                       # number of demand (read+write) MSHR miss ticks (Tick)
system.cpu.dcache.overallMshrMissLatency::cpu.data  12220363500                       # number of overall MSHR miss ticks (Tick)
system.cpu.dcache.overallMshrMissLatency::total  12220363500                       # number of overall MSHR miss ticks (Tick)
system.cpu.dcache.demandMshrMissRate::cpu.data     0.004658                       # mshr miss ratio for demand accesses (Ratio)
system.cpu.dcache.demandMshrMissRate::total     0.004658                       # mshr miss ratio for demand accesses (Ratio)
system.cpu.dcache.overallMshrMissRate::cpu.data     0.004658                       # mshr miss ratio for overall accesses (Ratio)
system.cpu.dcache.overallMshrMissRate::total     0.004658                       # mshr miss ratio for overall accesses (Ratio)
system.cpu.dcache.demandAvgMshrMissLatency::cpu.data 72878.206963                       # average overall mshr miss latency ((Tick/Count))
system.cpu.dcache.demandAvgMshrMissLatency::total 72878.206963                       # average overall mshr miss latency ((Tick/Count))
system.cpu.dcache.overallAvgMshrMissLatency::cpu.data 72878.206963                       # average overall mshr miss latency ((Tick/Count))
system.cpu.dcache.overallAvgMshrMissLatency::total 72878.206963                       # average overall mshr miss latency ((Tick/Count))
system.cpu.dcache.replacements                 163587                       # number of replacements (Count)
system.cpu.dcache.LoadLockedReq.hits::cpu.data            3                       # number of LoadLockedReq hits (Count)
system.cpu.dcache.LoadLockedReq.hits::total            3                       # number of LoadLockedReq hits (Count)
system.cpu.dcache.LoadLockedReq.misses::cpu.data            1                       # number of LoadLockedReq misses (Count)
system.cpu.dcache.LoadLockedReq.misses::total            1                       # number of LoadLockedReq misses (Count)
system.cpu.dcache.LoadLockedReq.missLatency::cpu.data        86000                       # number of LoadLockedReq miss ticks (Tick)
system.cpu.dcache.LoadLockedReq.missLatency::total        86000                       # number of LoadLockedReq miss ticks (Tick)
system.cpu.dcache.LoadLockedReq.accesses::cpu.data            4                       # number of LoadLockedReq accesses(hits+misses) (Count)
system.cpu.dcache.LoadLockedReq.accesses::total            4                       # number of LoadLockedReq accesses(hits+misses) (Count)
system.cpu.dcache.LoadLockedReq.missRate::cpu.data     0.250000                       # miss rate for LoadLockedReq accesses (Ratio)
system.cpu.dcache.LoadLockedReq.missRate::total     0.250000                       # miss rate for LoadLockedReq accesses (Ratio)
system.cpu.dcache.LoadLockedReq.avgMissLatency::cpu.data        86000                       # average LoadLockedReq miss latency ((Tick/Count))
system.cpu.dcache.LoadLockedReq.avgMissLatency::total        86000                       # average LoadLockedReq miss latency ((Tick/Count))
system.cpu.dcache.LoadLockedReq.mshrMisses::cpu.data            1                       # number of LoadLockedReq MSHR misses (Count)
system.cpu.dcache.LoadLockedReq.mshrMisses::total            1                       # number of LoadLockedReq MSHR misses (Count)
system.cpu.dcache.LoadLockedReq.mshrMissLatency::cpu.data        85000                       # number of LoadLockedReq MSHR miss ticks (Tick)
system.cpu.dcache.LoadLockedReq.mshrMissLatency::total        85000                       # number of LoadLockedReq MSHR miss ticks (Tick)
system.cpu.dcache.LoadLockedReq.mshrMissRate::cpu.data     0.250000                       # mshr miss rate for LoadLockedReq accesses (Ratio)
system.cpu.dcache.LoadLockedReq.mshrMissRate::total     0.250000                       # mshr miss rate for LoadLockedReq accesses (Ratio)
system.cpu.dcache.LoadLockedReq.avgMshrMissLatency::cpu.data        85000                       # average LoadLockedReq mshr miss latency ((Tick/Count))
system.cpu.dcache.LoadLockedReq.avgMshrMissLatency::total        85000                       # average LoadLockedReq mshr miss latency ((Tick/Count))
system.cpu.dcache.ReadReq.hits::cpu.data     19774458                       # number of ReadReq hits (Count)
system.cpu.dcache.ReadReq.hits::total        19774458                       # number of ReadReq hits (Count)
system.cpu.dcache.ReadReq.misses::cpu.data        26131                       # number of ReadReq misses (Count)
system.cpu.dcache.ReadReq.misses::total         26131                       # number of ReadReq misses (Count)
system.cpu.dcache.ReadReq.missLatency::cpu.data   1011335500                       # number of ReadReq miss ticks (Tick)
system.cpu.dcache.ReadReq.missLatency::total   1011335500                       # number of ReadReq miss ticks (Tick)
system.cpu.dcache.ReadReq.accesses::cpu.data     19800589                       # number of ReadReq accesses(hits+misses) (Count)
system.cpu.dcache.ReadReq.accesses::total     19800589                       # number of ReadReq accesses(hits+misses) (Count)
system.cpu.dcache.ReadReq.missRate::cpu.data     0.001320                       # miss rate for ReadReq accesses (Ratio)
system.cpu.dcache.ReadReq.missRate::total     0.001320                       # miss rate for ReadReq accesses (Ratio)
system.cpu.dcache.ReadReq.avgMissLatency::cpu.data 38702.518082                       # average ReadReq miss latency ((Tick/Count))
system.cpu.dcache.ReadReq.avgMissLatency::total 38702.518082                       # average ReadReq miss latency ((Tick/Count))
system.cpu.dcache.ReadReq.mshrHits::cpu.data            6                       # number of ReadReq MSHR hits (Count)
system.cpu.dcache.ReadReq.mshrHits::total            6                       # number of ReadReq MSHR hits (Count)
system.cpu.dcache.ReadReq.mshrMisses::cpu.data        26125                       # number of ReadReq MSHR misses (Count)
system.cpu.dcache.ReadReq.mshrMisses::total        26125                       # number of ReadReq MSHR misses (Count)
system.cpu.dcache.ReadReq.mshrMissLatency::cpu.data    984720500                       # number of ReadReq MSHR miss ticks (Tick)
system.cpu.dcache.ReadReq.mshrMissLatency::total    984720500                       # number of ReadReq MSHR miss ticks (Tick)
system.cpu.dcache.ReadReq.mshrMissRate::cpu.data     0.001319                       # mshr miss rate for ReadReq accesses (Ratio)
system.cpu.dcache.ReadReq.mshrMissRate::total     0.001319                       # mshr miss rate for ReadReq accesses (Ratio)
system.cpu.dcache.ReadReq.avgMshrMissLatency::cpu.data 37692.650718                       # average ReadReq mshr miss latency ((Tick/Count))
system.cpu.dcache.ReadReq.avgMshrMissLatency::total 37692.650718                       # average ReadReq mshr miss latency ((Tick/Count))
system.cpu.dcache.StoreCondReq.hits::cpu.data            4                       # number of StoreCondReq hits (Count)
system.cpu.dcache.StoreCondReq.hits::total            4                       # number of StoreCondReq hits (Count)
system.cpu.dcache.StoreCondReq.accesses::cpu.data            4                       # number of StoreCondReq accesses(hits+misses) (Count)
system.cpu.dcache.StoreCondReq.accesses::total            4                       # number of StoreCondReq accesses(hits+misses) (Count)
system.cpu.dcache.SwapReq.hits::cpu.data        99084                       # number of SwapReq hits (Count)
system.cpu.dcache.SwapReq.hits::total           99084                       # number of SwapReq hits (Count)
system.cpu.dcache.SwapReq.accesses::cpu.data        99084                       # number of SwapReq accesses(hits+misses) (Count)
system.cpu.dcache.SwapReq.accesses::total        99084                       # number of SwapReq accesses(hits+misses) (Count)
system.cpu.dcache.WriteLineReq.misses::cpu.data           28                       # number of WriteLineReq misses (Count)
system.cpu.dcache.WriteLineReq.misses::total           28                       # number of WriteLineReq misses (Count)
system.cpu.dcache.WriteLineReq.missLatency::cpu.data       887000                       # number of WriteLineReq miss ticks (Tick)
system.cpu.dcache.WriteLineReq.missLatency::total       887000                       # number of WriteLineReq miss ticks (Tick)
system.cpu.dcache.WriteLineReq.accesses::cpu.data           28                       # number of WriteLineReq accesses(hits+misses) (Count)
system.cpu.dcache.WriteLineReq.accesses::total           28                       # number of WriteLineReq accesses(hits+misses) (Count)
system.cpu.dcache.WriteLineReq.missRate::cpu.data            1                       # miss rate for WriteLineReq accesses (Ratio)
system.cpu.dcache.WriteLineReq.missRate::total            1                       # miss rate for WriteLineReq accesses (Ratio)
system.cpu.dcache.WriteLineReq.avgMissLatency::cpu.data 31678.571429                       # average WriteLineReq miss latency ((Tick/Count))
system.cpu.dcache.WriteLineReq.avgMissLatency::total 31678.571429                       # average WriteLineReq miss latency ((Tick/Count))
system.cpu.dcache.WriteLineReq.mshrMisses::cpu.data           28                       # number of WriteLineReq MSHR misses (Count)
system.cpu.dcache.WriteLineReq.mshrMisses::total           28                       # number of WriteLineReq MSHR misses (Count)
system.cpu.dcache.WriteLineReq.mshrMissLatency::cpu.data       859000                       # number of WriteLineReq MSHR miss ticks (Tick)
system.cpu.dcache.WriteLineReq.mshrMissLatency::total       859000                       # number of WriteLineReq MSHR miss ticks (Tick)
system.cpu.dcache.WriteLineReq.mshrMissRate::cpu.data            1                       # mshr miss rate for WriteLineReq accesses (Ratio)
system.cpu.dcache.WriteLineReq.mshrMissRate::total            1                       # mshr miss rate for WriteLineReq accesses (Ratio)
system.cpu.dcache.WriteLineReq.avgMshrMissLatency::cpu.data 30678.571429                       # average WriteLineReq mshr miss latency ((Tick/Count))
system.cpu.dcache.WriteLineReq.avgMshrMissLatency::total 30678.571429                       # average WriteLineReq mshr miss latency ((Tick/Count))
system.cpu.dcache.WriteReq.hits::cpu.data     16051550                       # number of WriteReq hits (Count)
system.cpu.dcache.WriteReq.hits::total       16051550                       # number of WriteReq hits (Count)
system.cpu.dcache.WriteReq.misses::cpu.data       147931                       # number of WriteReq misses (Count)
system.cpu.dcache.WriteReq.misses::total       147931                       # number of WriteReq misses (Count)
system.cpu.dcache.WriteReq.missLatency::cpu.data  11829671000                       # number of WriteReq miss ticks (Tick)
system.cpu.dcache.WriteReq.missLatency::total  11829671000                       # number of WriteReq miss ticks (Tick)
system.cpu.dcache.WriteReq.accesses::cpu.data     16199481                       # number of WriteReq accesses(hits+misses) (Count)
system.cpu.dcache.WriteReq.accesses::total     16199481                       # number of WriteReq accesses(hits+misses) (Count)
system.cpu.dcache.WriteReq.missRate::cpu.data     0.009132                       # miss rate for WriteReq accesses (Ratio)
system.cpu.dcache.WriteReq.missRate::total     0.009132                       # miss rate for WriteReq accesses (Ratio)
system.cpu.dcache.WriteReq.avgMissLatency::cpu.data 79967.491601                       # average WriteReq miss latency ((Tick/Count))
system.cpu.dcache.WriteReq.avgMissLatency::total 79967.491601                       # average WriteReq miss latency ((Tick/Count))
system.cpu.dcache.WriteReq.mshrHits::cpu.data         6402                       # number of WriteReq MSHR hits (Count)
system.cpu.dcache.WriteReq.mshrHits::total         6402                       # number of WriteReq MSHR hits (Count)
system.cpu.dcache.WriteReq.mshrMisses::cpu.data       141529                       # number of WriteReq MSHR misses (Count)
system.cpu.dcache.WriteReq.mshrMisses::total       141529                       # number of WriteReq MSHR misses (Count)
system.cpu.dcache.WriteReq.mshrMissLatency::cpu.data  11234784000                       # number of WriteReq MSHR miss ticks (Tick)
system.cpu.dcache.WriteReq.mshrMissLatency::total  11234784000                       # number of WriteReq MSHR miss ticks (Tick)
system.cpu.dcache.WriteReq.mshrMissRate::cpu.data     0.008737                       # mshr miss rate for WriteReq accesses (Ratio)
system.cpu.dcache.WriteReq.mshrMissRate::total     0.008737                       # mshr miss rate for WriteReq accesses (Ratio)
system.cpu.dcache.WriteReq.avgMshrMissLatency::cpu.data 79381.497785                       # average WriteReq mshr miss latency ((Tick/Count))
system.cpu.dcache.WriteReq.avgMshrMissLatency::total 79381.497785                       # average WriteReq mshr miss latency ((Tick/Count))
system.cpu.dcache.power_state.pwrStateResidencyTicks::UNDEFINED  66032189500                       # Cumulative time (in ticks) in various power states (Tick)
system.cpu.dcache.tags.tagsInUse          4073.231914                       # Average ticks per tags in use ((Tick/Count))
system.cpu.dcache.tags.totalRefs             36092782                       # Total number of references to valid blocks. (Count)
system.cpu.dcache.tags.sampledRefs             167683                       # Sample count of references to valid blocks. (Count)
system.cpu.dcache.tags.avgRefs             215.244133                       # Average number of references to valid blocks. ((Count/Count))
system.cpu.dcache.tags.warmupTick              196500                       # The tick when the warmup percentage was hit. (Tick)
system.cpu.dcache.tags.occupancies::cpu.data  4073.231914                       # Average occupied blocks per tick, per requestor ((Count/Tick))
system.cpu.dcache.tags.avgOccs::cpu.data     0.994441                       # Average percentage of cache occupancy ((Ratio/Tick))
system.cpu.dcache.tags.avgOccs::total        0.994441                       # Average percentage of cache occupancy ((Ratio/Tick))
system.cpu.dcache.tags.occupanciesTaskId::1024         4096                       # Occupied blocks per task id (Count)
system.cpu.dcache.tags.ageTaskId_1024::0           19                       # Occupied blocks per task id, per block age (Count)
system.cpu.dcache.tags.ageTaskId_1024::1          185                       # Occupied blocks per task id, per block age (Count)
system.cpu.dcache.tags.ageTaskId_1024::2         1651                       # Occupied blocks per task id, per block age (Count)
system.cpu.dcache.tags.ageTaskId_1024::3         2074                       # Occupied blocks per task id, per block age (Count)
system.cpu.dcache.tags.ageTaskId_1024::4          167                       # Occupied blocks per task id, per block age (Count)
system.cpu.dcache.tags.ratioOccsTaskId::1024            1                       # Ratio of occupied blocks and all blocks, per task id (Ratio)
system.cpu.dcache.tags.tagAccesses           72366063                       # Number of tag accesses (Count)
system.cpu.dcache.tags.dataAccesses          72366063                       # Number of data accesses (Count)
system.cpu.dcache.tags.power_state.pwrStateResidencyTicks::UNDEFINED  66032189500                       # Cumulative time (in ticks) in various power states (Tick)
system.cpu.fetch2.intInstructions            54462434                       # Number of integer instructions successfully decoded (Count)
system.cpu.fetch2.fpInstructions                    0                       # Number of floating point instructions successfully decoded (Count)
system.cpu.fetch2.vecInstructions              568005                       # Number of SIMD instructions successfully decoded (Count)
system.cpu.fetch2.loadInstructions           16220378                       # Number of memory load instructions successfully decoded (Count)
system.cpu.fetch2.storeInstructions           8647959                       # Number of memory store instructions successfully decoded (Count)
system.cpu.fetch2.amoInstructions               99088                       # Number of memory atomic instructions successfully decoded (Count)
system.cpu.icache.demandHits::cpu.inst       34637558                       # number of demand (read+write) hits (Count)
system.cpu.icache.demandHits::total          34637558                       # number of demand (read+write) hits (Count)
system.cpu.icache.overallHits::cpu.inst      34637558                       # number of overall hits (Count)
system.cpu.icache.overallHits::total         34637558                       # number of overall hits (Count)
system.cpu.icache.demandMisses::cpu.inst         1057                       # number of demand (read+write) misses (Count)
system.cpu.icache.demandMisses::total            1057                       # number of demand (read+write) misses (Count)
system.cpu.icache.overallMisses::cpu.inst         1057                       # number of overall misses (Count)
system.cpu.icache.overallMisses::total           1057                       # number of overall misses (Count)
system.cpu.icache.demandMissLatency::cpu.inst     82962500                       # number of demand (read+write) miss ticks (Tick)
system.cpu.icache.demandMissLatency::total     82962500                       # number of demand (read+write) miss ticks (Tick)
system.cpu.icache.overallMissLatency::cpu.inst     82962500                       # number of overall miss ticks (Tick)
system.cpu.icache.overallMissLatency::total     82962500                       # number of overall miss ticks (Tick)
system.cpu.icache.demandAccesses::cpu.inst     34638615                       # number of demand (read+write) accesses (Count)
system.cpu.icache.demandAccesses::total      34638615                       # number of demand (read+write) accesses (Count)
system.cpu.icache.overallAccesses::cpu.inst     34638615                       # number of overall (read+write) accesses (Count)
system.cpu.icache.overallAccesses::total     34638615                       # number of overall (read+write) accesses (Count)
system.cpu.icache.demandMissRate::cpu.inst     0.000031                       # miss rate for demand accesses (Ratio)
system.cpu.icache.demandMissRate::total      0.000031                       # miss rate for demand accesses (Ratio)
system.cpu.icache.overallMissRate::cpu.inst     0.000031                       # miss rate for overall accesses (Ratio)
system.cpu.icache.overallMissRate::total     0.000031                       # miss rate for overall accesses (Ratio)
system.cpu.icache.demandAvgMissLatency::cpu.inst 78488.647114                       # average overall miss latency in ticks ((Tick/Count))
system.cpu.icache.demandAvgMissLatency::total 78488.647114                       # average overall miss latency in ticks ((Tick/Count))
system.cpu.icache.overallAvgMissLatency::cpu.inst 78488.647114                       # average overall miss latency ((Tick/Count))
system.cpu.icache.overallAvgMissLatency::total 78488.647114                       # average overall miss latency ((Tick/Count))
system.cpu.icache.blockedCycles::no_mshrs            0                       # number of cycles access was blocked (Cycle)
system.cpu.icache.blockedCycles::no_targets            0                       # number of cycles access was blocked (Cycle)
system.cpu.icache.blockedCauses::no_mshrs            0                       # number of times access was blocked (Count)
system.cpu.icache.blockedCauses::no_targets            0                       # number of times access was blocked (Count)
system.cpu.icache.avgBlocked::no_mshrs            nan                       # average number of cycles each access was blocked ((Cycle/Count))
system.cpu.icache.avgBlocked::no_targets          nan                       # average number of cycles each access was blocked ((Cycle/Count))
system.cpu.icache.writebacks::writebacks           21                       # number of writebacks (Count)
system.cpu.icache.writebacks::total                21                       # number of writebacks (Count)
system.cpu.icache.demandMshrMisses::cpu.inst         1057                       # number of demand (read+write) MSHR misses (Count)
system.cpu.icache.demandMshrMisses::total         1057                       # number of demand (read+write) MSHR misses (Count)
system.cpu.icache.overallMshrMisses::cpu.inst         1057                       # number of overall MSHR misses (Count)
system.cpu.icache.overallMshrMisses::total         1057                       # number of overall MSHR misses (Count)
system.cpu.icache.demandMshrMissLatency::cpu.inst     81905500                       # number of demand (read+write) MSHR miss ticks (Tick)
system.cpu.icache.demandMshrMissLatency::total     81905500                       # number of demand (read+write) MSHR miss ticks (Tick)
system.cpu.icache.overallMshrMissLatency::cpu.inst     81905500                       # number of overall MSHR miss ticks (Tick)
system.cpu.icache.overallMshrMissLatency::total     81905500                       # number of overall MSHR miss ticks (Tick)
system.cpu.icache.demandMshrMissRate::cpu.inst     0.000031                       # mshr miss ratio for demand accesses (Ratio)
system.cpu.icache.demandMshrMissRate::total     0.000031                       # mshr miss ratio for demand accesses (Ratio)
system.cpu.icache.overallMshrMissRate::cpu.inst     0.000031                       # mshr miss ratio for overall accesses (Ratio)
system.cpu.icache.overallMshrMissRate::total     0.000031                       # mshr miss ratio for overall accesses (Ratio)
system.cpu.icache.demandAvgMshrMissLatency::cpu.inst 77488.647114                       # average overall mshr miss latency ((Tick/Count))
system.cpu.icache.demandAvgMshrMissLatency::total 77488.647114                       # average overall mshr miss latency ((Tick/Count))
system.cpu.icache.overallAvgMshrMissLatency::cpu.inst 77488.647114                       # average overall mshr miss latency ((Tick/Count))
system.cpu.icache.overallAvgMshrMissLatency::total 77488.647114                       # average overall mshr miss latency ((Tick/Count))
system.cpu.icache.replacements                     21                       # number of replacements (Count)
system.cpu.icache.ReadReq.hits::cpu.inst     34637558                       # number of ReadReq hits (Count)
system.cpu.icache.ReadReq.hits::total        34637558                       # number of ReadReq hits (Count)
system.cpu.icache.ReadReq.misses::cpu.inst         1057                       # number of ReadReq misses (Count)
system.cpu.icache.ReadReq.misses::total          1057                       # number of ReadReq misses (Count)
system.cpu.icache.ReadReq.missLatency::cpu.inst     82962500                       # number of ReadReq miss ticks (Tick)
system.cpu.icache.ReadReq.missLatency::total     82962500                       # number of ReadReq miss ticks (Tick)
system.cpu.icache.ReadReq.accesses::cpu.inst     34638615                       # number of ReadReq accesses(hits+misses) (Count)
system.cpu.icache.ReadReq.accesses::total     34638615                       # number of ReadReq accesses(hits+misses) (Count)
system.cpu.icache.ReadReq.missRate::cpu.inst     0.000031                       # miss rate for ReadReq accesses (Ratio)
system.cpu.icache.ReadReq.missRate::total     0.000031                       # miss rate for ReadReq accesses (Ratio)
system.cpu.icache.ReadReq.avgMissLatency::cpu.inst 78488.647114                       # average ReadReq miss latency ((Tick/Count))
system.cpu.icache.ReadReq.avgMissLatency::total 78488.647114                       # average ReadReq miss latency ((Tick/Count))
system.cpu.icache.ReadReq.mshrMisses::cpu.inst         1057                       # number of ReadReq MSHR misses (Count)
system.cpu.icache.ReadReq.mshrMisses::total         1057                       # number of ReadReq MSHR misses (Count)
system.cpu.icache.ReadReq.mshrMissLatency::cpu.inst     81905500                       # number of ReadReq MSHR miss ticks (Tick)
system.cpu.icache.ReadReq.mshrMissLatency::total     81905500                       # number of ReadReq MSHR miss ticks (Tick)
system.cpu.icache.ReadReq.mshrMissRate::cpu.inst     0.000031                       # mshr miss rate for ReadReq accesses (Ratio)
system.cpu.icache.ReadReq.mshrMissRate::total     0.000031                       # mshr miss rate for ReadReq accesses (Ratio)
system.cpu.icache.ReadReq.avgMshrMissLatency::cpu.inst 77488.647114                       # average ReadReq mshr miss latency ((Tick/Count))
system.cpu.icache.ReadReq.avgMshrMissLatency::total 77488.647114                       # average ReadReq mshr miss latency ((Tick/Count))
system.cpu.icache.power_state.pwrStateResidencyTicks::UNDEFINED  66032189500                       # Cumulative time (in ticks) in various power states (Tick)
system.cpu.icache.tags.tagsInUse          1031.179446                       # Average ticks per tags in use ((Tick/Count))
system.cpu.icache.tags.totalRefs             34638615                       # Total number of references to valid blocks. (Count)
system.cpu.icache.tags.sampledRefs               1057                       # Sample count of references to valid blocks. (Count)
system.cpu.icache.tags.avgRefs           32770.685904                       # Average number of references to valid blocks. ((Count/Count))
system.cpu.icache.tags.warmupTick               87500                       # The tick when the warmup percentage was hit. (Tick)
system.cpu.icache.tags.occupancies::cpu.inst  1031.179446                       # Average occupied blocks per tick, per requestor ((Count/Tick))
system.cpu.icache.tags.avgOccs::cpu.inst     0.251753                       # Average percentage of cache occupancy ((Ratio/Tick))
system.cpu.icache.tags.avgOccs::total        0.251753                       # Average percentage of cache occupancy ((Ratio/Tick))
system.cpu.icache.tags.occupanciesTaskId::1024         1036                       # Occupied blocks per task id (Count)
system.cpu.icache.tags.ageTaskId_1024::4         1036                       # Occupied blocks per task id, per block age (Count)
system.cpu.icache.tags.ratioOccsTaskId::1024     0.252930                       # Ratio of occupied blocks and all blocks, per task id (Ratio)
system.cpu.icache.tags.tagAccesses           69278287                       # Number of tag accesses (Count)
system.cpu.icache.tags.dataAccesses          69278287                       # Number of data accesses (Count)
system.cpu.icache.tags.power_state.pwrStateResidencyTicks::UNDEFINED  66032189500                       # Cumulative time (in ticks) in various power states (Tick)
system.cpu.mmu.alignFaults                          0                       # Number of MMU faults due to alignment restrictions (Count)
system.cpu.mmu.prefetchFaults                       0                       # Number of MMU faults due to prefetch (Count)
system.cpu.mmu.domainFaults                         0                       # Number of MMU faults due to domain restrictions (Count)
system.cpu.mmu.permsFaults                          0                       # Number of MMU faults due to permissions restrictions (Count)
system.cpu.mmu.dtb.readHits                         0                       # Read hits (Count)
system.cpu.mmu.dtb.readMisses                       0                       # Read misses (Count)
system.cpu.mmu.dtb.writeHits                        0                       # Write hits (Count)
system.cpu.mmu.dtb.writeMisses                      0                       # Write misses (Count)
system.cpu.mmu.dtb.inserts                          0                       # Number of times an entry is inserted into the TLB (Count)
system.cpu.mmu.dtb.flushTlb                         0                       # Number of times complete TLB was flushed (Count)
system.cpu.mmu.dtb.flushTlbMva                      0                       # Number of times TLB was flushed by MVA (Count)
system.cpu.mmu.dtb.flushTlbMvaAsid                  0                       # Number of times TLB was flushed by MVA & ASID (Count)
system.cpu.mmu.dtb.flushTlbAsid                     0                       # Number of times TLB was flushed by ASID (Count)
system.cpu.mmu.dtb.flushedEntries                   0                       # Number of entries that have been flushed from TLB (Count)
system.cpu.mmu.dtb.readAccesses                     0                       # Read accesses (Count)
system.cpu.mmu.dtb.writeAccesses                    0                       # Write accesses (Count)
system.cpu.mmu.dtb.hits                             0                       # Total TLB (inst and data) hits (Count)
system.cpu.mmu.dtb.misses                           0                       # Total TLB (inst and data) misses (Count)
system.cpu.mmu.dtb.accesses                         0                       # Total TLB (inst and data) accesses (Count)
system.cpu.mmu.dtb_walker.walks                     0                       # Table walker walks requested (Count)
system.cpu.mmu.dtb_walker.requestOrigin_Requested::Data            0                       # Table walker requests started/completed, data/inst (Count)
system.cpu.mmu.dtb_walker.requestOrigin_Requested::Inst            0                       # Table walker requests started/completed, data/inst (Count)
system.cpu.mmu.dtb_walker.requestOrigin_Requested::total            0                       # Table walker requests started/completed, data/inst (Count)
system.cpu.mmu.dtb_walker.requestOrigin_Completed::Data            0                       # Table walker requests started/completed, data/inst (Count)
system.cpu.mmu.dtb_walker.requestOrigin_Completed::Inst            0                       # Table walker requests started/completed, data/inst (Count)
system.cpu.mmu.dtb_walker.requestOrigin_Completed::total            0                       # Table walker requests started/completed, data/inst (Count)
system.cpu.mmu.dtb_walker.requestOrigin::total            0                       # Table walker requests started/completed, data/inst (Count)
system.cpu.mmu.dtb_walker.power_state.pwrStateResidencyTicks::UNDEFINED  66032189500                       # Cumulative time (in ticks) in various power states (Tick)
system.cpu.mmu.itb.instHits                         0                       # Inst hits (Count)
system.cpu.mmu.itb.instMisses                       0                       # Inst misses (Count)
system.cpu.mmu.itb.inserts                          0                       # Number of times an entry is inserted into the TLB (Count)
system.cpu.mmu.itb.flushTlb                         0                       # Number of times complete TLB was flushed (Count)
system.cpu.mmu.itb.flushTlbMva                      0                       # Number of times TLB was flushed by MVA (Count)
system.cpu.mmu.itb.flushTlbMvaAsid                  0                       # Number of times TLB was flushed by MVA & ASID (Count)
system.cpu.mmu.itb.flushTlbAsid                     0                       # Number of times TLB was flushed by ASID (Count)
system.cpu.mmu.itb.flushedEntries                   0                       # Number of entries that have been flushed from TLB (Count)
system.cpu.mmu.itb.instAccesses                     0                       # Inst accesses (Count)
system.cpu.mmu.itb.hits                             0                       # Total TLB (inst and data) hits (Count)
system.cpu.mmu.itb.misses                           0                       # Total TLB (inst and data) misses (Count)
system.cpu.mmu.itb.accesses                         0                       # Total TLB (inst and data) accesses (Count)
system.cpu.mmu.itb_walker.walks                     0                       # Table walker walks requested (Count)
system.cpu.mmu.itb_walker.requestOrigin_Requested::Data            0                       # Table walker requests started/completed, data/inst (Count)
system.cpu.mmu.itb_walker.requestOrigin_Requested::Inst            0                       # Table walker requests started/completed, data/inst (Count)
system.cpu.mmu.itb_walker.requestOrigin_Requested::total            0                       # Table walker requests started/completed, data/inst (Count)
system.cpu.mmu.itb_walker.requestOrigin_Completed::Data            0                       # Table walker requests started/completed, data/inst (Count)
system.cpu.mmu.itb_walker.requestOrigin_Completed::Inst            0                       # Table walker requests started/completed, data/inst (Count)
system.cpu.mmu.itb_walker.requestOrigin_Completed::total            0                       # Table walker requests started/completed, data/inst (Count)
system.cpu.mmu.itb_walker.requestOrigin::total            0                       # Table walker requests started/completed, data/inst (Count)
system.cpu.mmu.itb_walker.power_state.pwrStateResidencyTicks::UNDEFINED  66032189500                       # Cumulative time (in ticks) in various power states (Tick)
system.cpu.mmu.l2_shared.instHits                   0                       # Inst hits (Count)
system.cpu.mmu.l2_shared.instMisses                 0                       # Inst misses (Count)
system.cpu.mmu.l2_shared.inserts                    0                       # Number of times an entry is inserted into the TLB (Count)
system.cpu.mmu.l2_shared.flushTlb                   0                       # Number of times complete TLB was flushed (Count)
system.cpu.mmu.l2_shared.flushTlbMva                0                       # Number of times TLB was flushed by MVA (Count)
system.cpu.mmu.l2_shared.flushTlbMvaAsid            0                       # Number of times TLB was flushed by MVA & ASID (Count)
system.cpu.mmu.l2_shared.flushTlbAsid               0                       # Number of times TLB was flushed by ASID (Count)
system.cpu.mmu.l2_shared.flushedEntries             0                       # Number of entries that have been flushed from TLB (Count)
system.cpu.mmu.l2_shared.instAccesses               0                       # Inst accesses (Count)
system.cpu.mmu.l2_shared.hits                       0                       # Total TLB (inst and data) hits (Count)
system.cpu.mmu.l2_shared.misses                     0                       # Total TLB (inst and data) misses (Count)
system.cpu.mmu.l2_shared.accesses                   0                       # Total TLB (inst and data) accesses (Count)
system.cpu.mmu.stage2_dtb.readHits                  0                       # Read hits (Count)
system.cpu.mmu.stage2_dtb.readMisses                0                       # Read misses (Count)
system.cpu.mmu.stage2_dtb.writeHits                 0                       # Write hits (Count)
system.cpu.mmu.stage2_dtb.writeMisses               0                       # Write misses (Count)
system.cpu.mmu.stage2_dtb.inserts                   0                       # Number of times an entry is inserted into the TLB (Count)
system.cpu.mmu.stage2_dtb.flushTlb                  0                       # Number of times complete TLB was flushed (Count)
system.cpu.mmu.stage2_dtb.flushTlbMva               0                       # Number of times TLB was flushed by MVA (Count)
system.cpu.mmu.stage2_dtb.flushTlbMvaAsid            0                       # Number of times TLB was flushed by MVA & ASID (Count)
system.cpu.mmu.stage2_dtb.flushTlbAsid              0                       # Number of times TLB was flushed by ASID (Count)
system.cpu.mmu.stage2_dtb.flushedEntries            0                       # Number of entries that have been flushed from TLB (Count)
system.cpu.mmu.stage2_dtb.readAccesses              0                       # Read accesses (Count)
system.cpu.mmu.stage2_dtb.writeAccesses             0                       # Write accesses (Count)
system.cpu.mmu.stage2_dtb.hits                      0                       # Total TLB (inst and data) hits (Count)
system.cpu.mmu.stage2_dtb.misses                    0                       # Total TLB (inst and data) misses (Count)
system.cpu.mmu.stage2_dtb.accesses                  0                       # Total TLB (inst and data) accesses (Count)
system.cpu.mmu.stage2_dtb_walker.walks              0                       # Table walker walks requested (Count)
system.cpu.mmu.stage2_dtb_walker.requestOrigin_Requested::Data            0                       # Table walker requests started/completed, data/inst (Count)
system.cpu.mmu.stage2_dtb_walker.requestOrigin_Requested::Inst            0                       # Table walker requests started/completed, data/inst (Count)
system.cpu.mmu.stage2_dtb_walker.requestOrigin_Requested::total            0                       # Table walker requests started/completed, data/inst (Count)
system.cpu.mmu.stage2_dtb_walker.requestOrigin_Completed::Data            0                       # Table walker requests started/completed, data/inst (Count)
system.cpu.mmu.stage2_dtb_walker.requestOrigin_Completed::Inst            0                       # Table walker requests started/completed, data/inst (Count)
system.cpu.mmu.stage2_dtb_walker.requestOrigin_Completed::total            0                       # Table walker requests started/completed, data/inst (Count)
system.cpu.mmu.stage2_dtb_walker.requestOrigin::total            0                       # Table walker requests started/completed, data/inst (Count)
system.cpu.mmu.stage2_dtb_walker.power_state.pwrStateResidencyTicks::UNDEFINED  66032189500                       # Cumulative time (in ticks) in various power states (Tick)
system.cpu.mmu.stage2_itb.instHits                  0                       # Inst hits (Count)
system.cpu.mmu.stage2_itb.instMisses                0                       # Inst misses (Count)
system.cpu.mmu.stage2_itb.inserts                   0                       # Number of times an entry is inserted into the TLB (Count)
system.cpu.mmu.stage2_itb.flushTlb                  0                       # Number of times complete TLB was flushed (Count)
system.cpu.mmu.stage2_itb.flushTlbMva               0                       # Number of times TLB was flushed by MVA (Count)
system.cpu.mmu.stage2_itb.flushTlbMvaAsid            0                       # Number of times TLB was flushed by MVA & ASID (Count)
system.cpu.mmu.stage2_itb.flushTlbAsid              0                       # Number of times TLB was flushed by ASID (Count)
system.cpu.mmu.stage2_itb.flushedEntries            0                       # Number of entries that have been flushed from TLB (Count)
system.cpu.mmu.stage2_itb.instAccesses              0                       # Inst accesses (Count)
system.cpu.mmu.stage2_itb.hits                      0                       # Total TLB (inst and data) hits (Count)
system.cpu.mmu.stage2_itb.misses                    0                       # Total TLB (inst and data) misses (Count)
system.cpu.mmu.stage2_itb.accesses                  0                       # Total TLB (inst and data) accesses (Count)
system.cpu.mmu.stage2_itb_walker.walks              0                       # Table walker walks requested (Count)
system.cpu.mmu.stage2_itb_walker.requestOrigin_Requested::Data            0                       # Table walker requests started/completed, data/inst (Count)
system.cpu.mmu.stage2_itb_walker.requestOrigin_Requested::Inst            0                       # Table walker requests started/completed, data/inst (Count)
system.cpu.mmu.stage2_itb_walker.requestOrigin_Requested::total            0                       # Table walker requests started/completed, data/inst (Count)
system.cpu.mmu.stage2_itb_walker.requestOrigin_Completed::Data            0                       # Table walker requests started/completed, data/inst (Count)
system.cpu.mmu.stage2_itb_walker.requestOrigin_Completed::Inst            0                       # Table walker requests started/completed, data/inst (Count)
system.cpu.mmu.stage2_itb_walker.requestOrigin_Completed::total            0                       # Table walker requests started/completed, data/inst (Count)
system.cpu.mmu.stage2_itb_walker.requestOrigin::total            0                       # Table walker requests started/completed, data/inst (Count)
system.cpu.mmu.stage2_itb_walker.power_state.pwrStateResidencyTicks::UNDEFINED  66032189500                       # Cumulative time (in ticks) in various power states (Tick)
system.cpu.power_state.pwrStateResidencyTicks::ON  66032189500                       # Cumulative time (in ticks) in various power states (Tick)
system.cpu.thread_0.numInsts                100000001                       # Number of Instructions committed (Count)
system.cpu.thread_0.numOps                  111671835                       # Number of Ops committed (Count)
system.cpu.thread_0.numMemRefs                      0                       # Number of Memory References (Count)
system.cpu.workload.numSyscalls                    93                       # Number of system calls (Count)
system.cpu_clk_domain.clock                       500                       # Clock period in ticks (Tick)
system.cpu_voltage_domain.voltage                   1                       # Voltage in Volts (Volt)
system.l2.demandHits::cpu.inst                      1                       # number of demand (read+write) hits (Count)
system.l2.demandHits::cpu.data                  16244                       # number of demand (read+write) hits (Count)
system.l2.demandHits::total                     16245                       # number of demand (read+write) hits (Count)
system.l2.overallHits::cpu.inst                     1                       # number of overall hits (Count)
system.l2.overallHits::cpu.data                 16244                       # number of overall hits (Count)
system.l2.overallHits::total                    16245                       # number of overall hits (Count)
system.l2.demandMisses::cpu.inst                 1056                       # number of demand (read+write) misses (Count)
system.l2.demandMisses::cpu.data               151411                       # number of demand (read+write) misses (Count)
system.l2.demandMisses::total                  152467                       # number of demand (read+write) misses (Count)
system.l2.overallMisses::cpu.inst                1056                       # number of overall misses (Count)
system.l2.overallMisses::cpu.data              151411                       # number of overall misses (Count)
system.l2.overallMisses::total                 152467                       # number of overall misses (Count)
system.l2.demandMissLatency::cpu.inst        80307500                       # number of demand (read+write) miss ticks (Tick)
system.l2.demandMissLatency::cpu.data     11797511000                       # number of demand (read+write) miss ticks (Tick)
system.l2.demandMissLatency::total        11877818500                       # number of demand (read+write) miss ticks (Tick)
system.l2.overallMissLatency::cpu.inst       80307500                       # number of overall miss ticks (Tick)
system.l2.overallMissLatency::cpu.data    11797511000                       # number of overall miss ticks (Tick)
system.l2.overallMissLatency::total       11877818500                       # number of overall miss ticks (Tick)
system.l2.demandAccesses::cpu.inst               1057                       # number of demand (read+write) accesses (Count)
system.l2.demandAccesses::cpu.data             167655                       # number of demand (read+write) accesses (Count)
system.l2.demandAccesses::total                168712                       # number of demand (read+write) accesses (Count)
system.l2.overallAccesses::cpu.inst              1057                       # number of overall (read+write) accesses (Count)
system.l2.overallAccesses::cpu.data            167655                       # number of overall (read+write) accesses (Count)
system.l2.overallAccesses::total               168712                       # number of overall (read+write) accesses (Count)
system.l2.demandMissRate::cpu.inst           0.999054                       # miss rate for demand accesses (Ratio)
system.l2.demandMissRate::cpu.data           0.903111                       # miss rate for demand accesses (Ratio)
system.l2.demandMissRate::total              0.903712                       # miss rate for demand accesses (Ratio)
system.l2.overallMissRate::cpu.inst          0.999054                       # miss rate for overall accesses (Ratio)
system.l2.overallMissRate::cpu.data          0.903111                       # miss rate for overall accesses (Ratio)
system.l2.overallMissRate::total             0.903712                       # miss rate for overall accesses (Ratio)
system.l2.demandAvgMissLatency::cpu.inst 76048.768939                       # average overall miss latency in ticks ((Tick/Count))
system.l2.demandAvgMissLatency::cpu.data 77917.132837                       # average overall miss latency in ticks ((Tick/Count))
system.l2.demandAvgMissLatency::total    77904.192383                       # average overall miss latency in ticks ((Tick/Count))
system.l2.overallAvgMissLatency::cpu.inst 76048.768939                       # average overall miss latency ((Tick/Count))
system.l2.overallAvgMissLatency::cpu.data 77917.132837                       # average overall miss latency ((Tick/Count))
system.l2.overallAvgMissLatency::total   77904.192383                       # average overall miss latency ((Tick/Count))
system.l2.blockedCycles::no_mshrs                   0                       # number of cycles access was blocked (Cycle)
system.l2.blockedCycles::no_targets                 0                       # number of cycles access was blocked (Cycle)
system.l2.blockedCauses::no_mshrs                   0                       # number of times access was blocked (Count)
system.l2.blockedCauses::no_targets                 0                       # number of times access was blocked (Count)
system.l2.avgBlocked::no_mshrs                    nan                       # average number of cycles each access was blocked ((Cycle/Count))
system.l2.avgBlocked::no_targets                  nan                       # average number of cycles each access was blocked ((Cycle/Count))
system.l2.writebacks::writebacks                26080                       # number of writebacks (Count)
system.l2.writebacks::total                     26080                       # number of writebacks (Count)
system.l2.demandMshrMisses::cpu.inst             1056                       # number of demand (read+write) MSHR misses (Count)
system.l2.demandMshrMisses::cpu.data           151411                       # number of demand (read+write) MSHR misses (Count)
system.l2.demandMshrMisses::total              152467                       # number of demand (read+write) MSHR misses (Count)
system.l2.overallMshrMisses::cpu.inst            1056                       # number of overall MSHR misses (Count)
system.l2.overallMshrMisses::cpu.data          151411                       # number of overall MSHR misses (Count)
system.l2.overallMshrMisses::total             152467                       # number of overall MSHR misses (Count)
system.l2.demandMshrMissLatency::cpu.inst     69747500                       # number of demand (read+write) MSHR miss ticks (Tick)
system.l2.demandMshrMissLatency::cpu.data  10283401000                       # number of demand (read+write) MSHR miss ticks (Tick)
system.l2.demandMshrMissLatency::total    10353148500                       # number of demand (read+write) MSHR miss ticks (Tick)
system.l2.overallMshrMissLatency::cpu.inst     69747500                       # number of overall MSHR miss ticks (Tick)
system.l2.overallMshrMissLatency::cpu.data  10283401000                       # number of overall MSHR miss ticks (Tick)
system.l2.overallMshrMissLatency::total   10353148500                       # number of overall MSHR miss ticks (Tick)
system.l2.demandMshrMissRate::cpu.inst       0.999054                       # mshr miss ratio for demand accesses (Ratio)
system.l2.demandMshrMissRate::cpu.data       0.903111                       # mshr miss ratio for demand accesses (Ratio)
system.l2.demandMshrMissRate::total          0.903712                       # mshr miss ratio for demand accesses (Ratio)
system.l2.overallMshrMissRate::cpu.inst      0.999054                       # mshr miss ratio for overall accesses (Ratio)
system.l2.overallMshrMissRate::cpu.data      0.903111                       # mshr miss ratio for overall accesses (Ratio)
system.l2.overallMshrMissRate::total         0.903712                       # mshr miss ratio for overall accesses (Ratio)
system.l2.demandAvgMshrMissLatency::cpu.inst 66048.768939                       # average overall mshr miss latency ((Tick/Count))
system.l2.demandAvgMshrMissLatency::cpu.data 67917.132837                       # average overall mshr miss latency ((Tick/Count))
system.l2.demandAvgMshrMissLatency::total 67904.192383                       # average overall mshr miss latency ((Tick/Count))
system.l2.overallAvgMshrMissLatency::cpu.inst 66048.768939                       # average overall mshr miss latency ((Tick/Count))
system.l2.overallAvgMshrMissLatency::cpu.data 67917.132837                       # average overall mshr miss latency ((Tick/Count))
system.l2.overallAvgMshrMissLatency::total 67904.192383                       # average overall mshr miss latency ((Tick/Count))
system.l2.replacements                          27125                       # number of replacements (Count)
system.l2.CleanEvict.mshrMisses::writebacks           14                       # number of CleanEvict MSHR misses (Count)
system.l2.CleanEvict.mshrMisses::total             14                       # number of CleanEvict MSHR misses (Count)
system.l2.CleanEvict.mshrMissRate::writebacks          inf                       # mshr miss rate for CleanEvict accesses (Ratio)
system.l2.CleanEvict.mshrMissRate::total          inf                       # mshr miss rate for CleanEvict accesses (Ratio)
system.l2.InvalidateReq.misses::cpu.data           28                       # number of InvalidateReq misses (Count)
system.l2.InvalidateReq.misses::total              28                       # number of InvalidateReq misses (Count)
system.l2.InvalidateReq.accesses::cpu.data           28                       # number of InvalidateReq accesses(hits+misses) (Count)
system.l2.InvalidateReq.accesses::total            28                       # number of InvalidateReq accesses(hits+misses) (Count)
system.l2.InvalidateReq.missRate::cpu.data            1                       # miss rate for InvalidateReq accesses (Ratio)
system.l2.InvalidateReq.missRate::total             1                       # miss rate for InvalidateReq accesses (Ratio)
system.l2.InvalidateReq.mshrMisses::cpu.data           28                       # number of InvalidateReq MSHR misses (Count)
system.l2.InvalidateReq.mshrMisses::total           28                       # number of InvalidateReq MSHR misses (Count)
system.l2.InvalidateReq.mshrMissLatency::cpu.data       537000                       # number of InvalidateReq MSHR miss ticks (Tick)
system.l2.InvalidateReq.mshrMissLatency::total       537000                       # number of InvalidateReq MSHR miss ticks (Tick)
system.l2.InvalidateReq.mshrMissRate::cpu.data            1                       # mshr miss rate for InvalidateReq accesses (Ratio)
system.l2.InvalidateReq.mshrMissRate::total            1                       # mshr miss rate for InvalidateReq accesses (Ratio)
system.l2.InvalidateReq.avgMshrMissLatency::cpu.data 19178.571429                       # average InvalidateReq mshr miss latency ((Tick/Count))
system.l2.InvalidateReq.avgMshrMissLatency::total 19178.571429                       # average InvalidateReq mshr miss latency ((Tick/Count))
system.l2.ReadCleanReq.hits::cpu.inst               1                       # number of ReadCleanReq hits (Count)
system.l2.ReadCleanReq.hits::total                  1                       # number of ReadCleanReq hits (Count)
system.l2.ReadCleanReq.misses::cpu.inst          1056                       # number of ReadCleanReq misses (Count)
system.l2.ReadCleanReq.misses::total             1056                       # number of ReadCleanReq misses (Count)
system.l2.ReadCleanReq.missLatency::cpu.inst     80307500                       # number of ReadCleanReq miss ticks (Tick)
system.l2.ReadCleanReq.missLatency::total     80307500                       # number of ReadCleanReq miss ticks (Tick)
system.l2.ReadCleanReq.accesses::cpu.inst         1057                       # number of ReadCleanReq accesses(hits+misses) (Count)
system.l2.ReadCleanReq.accesses::total           1057                       # number of ReadCleanReq accesses(hits+misses) (Count)
system.l2.ReadCleanReq.missRate::cpu.inst     0.999054                       # miss rate for ReadCleanReq accesses (Ratio)
system.l2.ReadCleanReq.missRate::total       0.999054                       # miss rate for ReadCleanReq accesses (Ratio)
system.l2.ReadCleanReq.avgMissLatency::cpu.inst 76048.768939                       # average ReadCleanReq miss latency ((Tick/Count))
system.l2.ReadCleanReq.avgMissLatency::total 76048.768939                       # average ReadCleanReq miss latency ((Tick/Count))
system.l2.ReadCleanReq.mshrMisses::cpu.inst         1056                       # number of ReadCleanReq MSHR misses (Count)
system.l2.ReadCleanReq.mshrMisses::total         1056                       # number of ReadCleanReq MSHR misses (Count)
system.l2.ReadCleanReq.mshrMissLatency::cpu.inst     69747500                       # number of ReadCleanReq MSHR miss ticks (Tick)
system.l2.ReadCleanReq.mshrMissLatency::total     69747500                       # number of ReadCleanReq MSHR miss ticks (Tick)
system.l2.ReadCleanReq.mshrMissRate::cpu.inst     0.999054                       # mshr miss rate for ReadCleanReq accesses (Ratio)
system.l2.ReadCleanReq.mshrMissRate::total     0.999054                       # mshr miss rate for ReadCleanReq accesses (Ratio)
system.l2.ReadCleanReq.avgMshrMissLatency::cpu.inst 66048.768939                       # average ReadCleanReq mshr miss latency ((Tick/Count))
system.l2.ReadCleanReq.avgMshrMissLatency::total 66048.768939                       # average ReadCleanReq mshr miss latency ((Tick/Count))
system.l2.ReadExReq.hits::cpu.data                349                       # number of ReadExReq hits (Count)
system.l2.ReadExReq.hits::total                   349                       # number of ReadExReq hits (Count)
system.l2.ReadExReq.misses::cpu.data           141180                       # number of ReadExReq misses (Count)
system.l2.ReadExReq.misses::total              141180                       # number of ReadExReq misses (Count)
system.l2.ReadExReq.missLatency::cpu.data  11018820000                       # number of ReadExReq miss ticks (Tick)
system.l2.ReadExReq.missLatency::total    11018820000                       # number of ReadExReq miss ticks (Tick)
system.l2.ReadExReq.accesses::cpu.data         141529                       # number of ReadExReq accesses(hits+misses) (Count)
system.l2.ReadExReq.accesses::total            141529                       # number of ReadExReq accesses(hits+misses) (Count)
system.l2.ReadExReq.missRate::cpu.data       0.997534                       # miss rate for ReadExReq accesses (Ratio)
system.l2.ReadExReq.missRate::total          0.997534                       # miss rate for ReadExReq accesses (Ratio)
system.l2.ReadExReq.avgMissLatency::cpu.data 78048.023799                       # average ReadExReq miss latency ((Tick/Count))
system.l2.ReadExReq.avgMissLatency::total 78048.023799                       # average ReadExReq miss latency ((Tick/Count))
system.l2.ReadExReq.mshrMisses::cpu.data       141180                       # number of ReadExReq MSHR misses (Count)
system.l2.ReadExReq.mshrMisses::total          141180                       # number of ReadExReq MSHR misses (Count)
system.l2.ReadExReq.mshrMissLatency::cpu.data   9607020000                       # number of ReadExReq MSHR miss ticks (Tick)
system.l2.ReadExReq.mshrMissLatency::total   9607020000                       # number of ReadExReq MSHR miss ticks (Tick)
system.l2.ReadExReq.mshrMissRate::cpu.data     0.997534                       # mshr miss rate for ReadExReq accesses (Ratio)
system.l2.ReadExReq.mshrMissRate::total      0.997534                       # mshr miss rate for ReadExReq accesses (Ratio)
system.l2.ReadExReq.avgMshrMissLatency::cpu.data 68048.023799                       # average ReadExReq mshr miss latency ((Tick/Count))
system.l2.ReadExReq.avgMshrMissLatency::total 68048.023799                       # average ReadExReq mshr miss latency ((Tick/Count))
system.l2.ReadSharedReq.hits::cpu.data          15895                       # number of ReadSharedReq hits (Count)
system.l2.ReadSharedReq.hits::total             15895                       # number of ReadSharedReq hits (Count)
system.l2.ReadSharedReq.misses::cpu.data        10231                       # number of ReadSharedReq misses (Count)
system.l2.ReadSharedReq.misses::total           10231                       # number of ReadSharedReq misses (Count)
system.l2.ReadSharedReq.missLatency::cpu.data    778691000                       # number of ReadSharedReq miss ticks (Tick)
system.l2.ReadSharedReq.missLatency::total    778691000                       # number of ReadSharedReq miss ticks (Tick)
system.l2.ReadSharedReq.accesses::cpu.data        26126                       # number of ReadSharedReq accesses(hits+misses) (Count)
system.l2.ReadSharedReq.accesses::total         26126                       # number of ReadSharedReq accesses(hits+misses) (Count)
system.l2.ReadSharedReq.missRate::cpu.data     0.391602                       # miss rate for ReadSharedReq accesses (Ratio)
system.l2.ReadSharedReq.missRate::total      0.391602                       # miss rate for ReadSharedReq accesses (Ratio)
system.l2.ReadSharedReq.avgMissLatency::cpu.data 76110.937347                       # average ReadSharedReq miss latency ((Tick/Count))
system.l2.ReadSharedReq.avgMissLatency::total 76110.937347                       # average ReadSharedReq miss latency ((Tick/Count))
system.l2.ReadSharedReq.mshrMisses::cpu.data        10231                       # number of ReadSharedReq MSHR misses (Count)
system.l2.ReadSharedReq.mshrMisses::total        10231                       # number of ReadSharedReq MSHR misses (Count)
system.l2.ReadSharedReq.mshrMissLatency::cpu.data    676381000                       # number of ReadSharedReq MSHR miss ticks (Tick)
system.l2.ReadSharedReq.mshrMissLatency::total    676381000                       # number of ReadSharedReq MSHR miss ticks (Tick)
system.l2.ReadSharedReq.mshrMissRate::cpu.data     0.391602                       # mshr miss rate for ReadSharedReq accesses (Ratio)
system.l2.ReadSharedReq.mshrMissRate::total     0.391602                       # mshr miss rate for ReadSharedReq accesses (Ratio)
system.l2.ReadSharedReq.avgMshrMissLatency::cpu.data 66110.937347                       # average ReadSharedReq mshr miss latency ((Tick/Count))
system.l2.ReadSharedReq.avgMshrMissLatency::total 66110.937347                       # average ReadSharedReq mshr miss latency ((Tick/Count))
system.l2.WritebackClean.hits::writebacks           21                       # number of WritebackClean hits (Count)
system.l2.WritebackClean.hits::total               21                       # number of WritebackClean hits (Count)
system.l2.WritebackClean.accesses::writebacks           21                       # number of WritebackClean accesses(hits+misses) (Count)
system.l2.WritebackClean.accesses::total           21                       # number of WritebackClean accesses(hits+misses) (Count)
system.l2.WritebackDirty.hits::writebacks       160216                       # number of WritebackDirty hits (Count)
system.l2.WritebackDirty.hits::total           160216                       # number of WritebackDirty hits (Count)
system.l2.WritebackDirty.accesses::writebacks       160216                       # number of WritebackDirty accesses(hits+misses) (Count)
system.l2.WritebackDirty.accesses::total       160216                       # number of WritebackDirty accesses(hits+misses) (Count)
system.l2.power_state.pwrStateResidencyTicks::UNDEFINED  66032189500                       # Cumulative time (in ticks) in various power states (Tick)
system.l2.tags.tagsInUse                 93254.190715                       # Average ticks per tags in use ((Tick/Count))
system.l2.tags.totalRefs                       332303                       # Total number of references to valid blocks. (Count)
system.l2.tags.sampledRefs                     152496                       # Sample count of references to valid blocks. (Count)
system.l2.tags.avgRefs                       2.179093                       # Average number of references to valid blocks. ((Count/Count))
system.l2.tags.warmupTick                       77000                       # The tick when the warmup percentage was hit. (Tick)
system.l2.tags.occupancies::writebacks      20.008262                       # Average occupied blocks per tick, per requestor ((Count/Tick))
system.l2.tags.occupancies::cpu.inst       632.250192                       # Average occupied blocks per tick, per requestor ((Count/Tick))
system.l2.tags.occupancies::cpu.data     92601.932261                       # Average occupied blocks per tick, per requestor ((Count/Tick))
system.l2.tags.avgOccs::writebacks           0.000153                       # Average percentage of cache occupancy ((Ratio/Tick))
system.l2.tags.avgOccs::cpu.inst             0.004824                       # Average percentage of cache occupancy ((Ratio/Tick))
system.l2.tags.avgOccs::cpu.data             0.706497                       # Average percentage of cache occupancy ((Ratio/Tick))
system.l2.tags.avgOccs::total                0.711473                       # Average percentage of cache occupancy ((Ratio/Tick))
system.l2.tags.occupanciesTaskId::1024         125371                       # Occupied blocks per task id (Count)
system.l2.tags.ageTaskId_1024::0                   15                       # Occupied blocks per task id, per block age (Count)
system.l2.tags.ageTaskId_1024::1                  138                       # Occupied blocks per task id, per block age (Count)
system.l2.tags.ageTaskId_1024::2                 1456                       # Occupied blocks per task id, per block age (Count)
system.l2.tags.ageTaskId_1024::3                14295                       # Occupied blocks per task id, per block age (Count)
system.l2.tags.ageTaskId_1024::4               109467                       # Occupied blocks per task id, per block age (Count)
system.l2.tags.ratioOccsTaskId::1024         0.956505                       # Ratio of occupied blocks and all blocks, per task id (Ratio)
system.l2.tags.tagAccesses                     817186                       # Number of tag accesses (Count)
system.l2.tags.dataAccesses                    817186                       # Number of data accesses (Count)
system.l2.tags.power_state.pwrStateResidencyTicks::UNDEFINED  66032189500                       # Cumulative time (in ticks) in various power states (Tick)
system.mem_ctrls.avgPriority_writebacks::samples     17308.00                       # Average QoS priority value for accepted requests (Count)
system.mem_ctrls.avgPriority_cpu.inst::samples      1056.00                       # Average QoS priority value for accepted requests (Count)
[...]
system.mem_ctrls.dram.perBankWrBursts::12         1129                       # Per bank write bursts (Count)
system.mem_ctrls.dram.perBankWrBursts::13         1028                       # Per bank write bursts (Count)
system.mem_ctrls.dram.perBankWrBursts::14         1020                       # Per bank write bursts (Count)
system.mem_ctrls.dram.perBankWrBursts::15          971                       # Per bank write bursts (Count)
system.mem_ctrls.dram.totQLat              1222121750                       # Total ticks spent queuing (Tick)
system.mem_ctrls.dram.totBusLat             762305000                       # Total ticks spent in databus transfers (Tick)
system.mem_ctrls.dram.totMemAccLat         4080765500                       # Total ticks spent from burst creation until serviced by the DRAM (Tick)
system.mem_ctrls.dram.avgQLat                 8015.96                       # Average queueing delay per DRAM burst ((Tick/Count))
system.mem_ctrls.dram.avgBusLat               5000.00                       # Average bus latency per DRAM burst ((Tick/Count))
system.mem_ctrls.dram.avgMemAccLat           26765.96                       # Average memory access latency per DRAM burst ((Tick/Count))
system.mem_ctrls.dram.readRowHits              137641                       # Number of row buffer hits during reads (Count)
system.mem_ctrls.dram.writeRowHits              14685                       # Number of row buffer hits during writes (Count)
system.mem_ctrls.dram.readRowHitRate            90.28                       # Row buffer hit rate for reads (Ratio)
system.mem_ctrls.dram.writeRowHitRate           84.95                       # Row buffer hit rate for writes (Ratio)
system.mem_ctrls.dram.bytesPerActivate::samples        17419                       # Bytes accessed per row activation (Byte)
system.mem_ctrls.dram.bytesPerActivate::mean   623.650037                       # Bytes accessed per row activation (Byte)
system.mem_ctrls.dram.bytesPerActivate::gmean   474.671427                       # Bytes accessed per row activation (Byte)
system.mem_ctrls.dram.bytesPerActivate::stdev   318.846069                       # Bytes accessed per row activation (Byte)
system.mem_ctrls.dram.bytesPerActivate::0-127         2112     12.12%     12.12% # Bytes accessed per row activation (Byte)
system.mem_ctrls.dram.bytesPerActivate::128-255         1304      7.49%     19.61% # Bytes accessed per row activation (Byte)
system.mem_ctrls.dram.bytesPerActivate::256-383          694      3.98%     23.59% # Bytes accessed per row activation (Byte)
system.mem_ctrls.dram.bytesPerActivate::384-511         1124      6.45%     30.05% # Bytes accessed per row activation (Byte)
system.mem_ctrls.dram.bytesPerActivate::512-639          885      5.08%     35.13% # Bytes accessed per row activation (Byte)
system.mem_ctrls.dram.bytesPerActivate::640-767         1389      7.97%     43.10% # Bytes accessed per row activation (Byte)
system.mem_ctrls.dram.bytesPerActivate::768-895         6243     35.84%     78.94% # Bytes accessed per row activation (Byte)
system.mem_ctrls.dram.bytesPerActivate::896-1023          715      4.10%     83.05% # Bytes accessed per row activation (Byte)
system.mem_ctrls.dram.bytesPerActivate::1024-1151         2953     16.95%    100.00% # Bytes accessed per row activation (Byte)
system.mem_ctrls.dram.bytesPerActivate::total        17419                       # Bytes accessed per row activation (Byte)
system.mem_ctrls.dram.bytesRead               9757504                       # Total bytes read (Byte)
system.mem_ctrls.dram.bytesWritten            1106304                       # Total bytes written (Byte)
system.mem_ctrls.dram.avgRdBW              147.768900                       # Average DRAM read bandwidth in MiBytes/s ((Byte/Second))
system.mem_ctrls.dram.avgWrBW               16.754011                       # Average DRAM write bandwidth in MiBytes/s ((Byte/Second))
system.mem_ctrls.dram.peakBW                 12800.00                       # Theoretical peak bandwidth in MiByte/s ((Byte/Second))
system.mem_ctrls.dram.busUtil                    1.29                       # Data bus utilization in percentage (Ratio)
system.mem_ctrls.dram.busUtilRead                1.15                       # Data bus utilization in percentage for reads (Ratio)
system.mem_ctrls.dram.busUtilWrite               0.13                       # Data bus utilization in percentage for writes (Ratio)
system.mem_ctrls.dram.pageHitRate               89.74                       # Row buffer hit rate, read and write combined (Ratio)
system.mem_ctrls.dram.power_state.pwrStateResidencyTicks::UNDEFINED  66032189500                       # Cumulative time (in ticks) in various power states (Tick)
system.mem_ctrls.dram.rank0.actEnergy        63517440                       # Energy for activate commands per rank (pJ) (Joule)
system.mem_ctrls.dram.rank0.preEnergy        33760320                       # Energy for precharge commands per rank (pJ) (Joule)
system.mem_ctrls.dram.rank0.readEnergy      544332180                       # Energy for read commands per rank (pJ) (Joule)
system.mem_ctrls.dram.rank0.writeEnergy      44657100                       # Energy for write commands per rank (pJ) (Joule)
system.mem_ctrls.dram.rank0.refreshEnergy 5212147200.000001                       # Energy for refresh commands per rank (pJ) (Joule)
system.mem_ctrls.dram.rank0.actBackEnergy  15977622690                       # Energy for active background per rank (pJ) (Joule)
system.mem_ctrls.dram.rank0.preBackEnergy  11901520800                       # Energy for precharge background per rank (pJ) (Joule)
system.mem_ctrls.dram.rank0.actPowerDownEnergy            0                       # Energy for active power-down per rank (pJ) (Joule)
system.mem_ctrls.dram.rank0.prePowerDownEnergy            0                       # Energy for precharge power-down per rank (pJ) (Joule)
system.mem_ctrls.dram.rank0.selfRefreshEnergy            0                       # Energy for self refresh per rank (pJ) (Joule)
system.mem_ctrls.dram.rank0.totalEnergy   33777557730                       # Total energy per rank (pJ) (Joule)
system.mem_ctrls.dram.rank0.averagePower   511.531694                       # Core power per rank (mW) (Watt)
system.mem_ctrls.dram.rank0.totalIdleTime            0                       # Total Idle time Per DRAM Rank (Tick)
system.mem_ctrls.dram.rank0.pwrStateTime::IDLE  30799342750                       # Time in different power states (Tick)
system.mem_ctrls.dram.rank0.pwrStateTime::REF   2204800000                       # Time in different power states (Tick)
system.mem_ctrls.dram.rank0.pwrStateTime::SREF            0                       # Time in different power states (Tick)
system.mem_ctrls.dram.rank0.pwrStateTime::PRE_PDN            0                       # Time in different power states (Tick)
system.mem_ctrls.dram.rank0.pwrStateTime::ACT  33028046750                       # Time in different power states (Tick)
system.mem_ctrls.dram.rank0.pwrStateTime::ACT_PDN            0                       # Time in different power states (Tick)
system.mem_ctrls.dram.rank1.actEnergy        60868500                       # Energy for activate commands per rank (pJ) (Joule)
system.mem_ctrls.dram.rank1.preEnergy        32344785                       # Energy for precharge commands per rank (pJ) (Joule)
system.mem_ctrls.dram.rank1.readEnergy      544239360                       # Energy for read commands per rank (pJ) (Joule)
system.mem_ctrls.dram.rank1.writeEnergy      45575820                       # Energy for write commands per rank (pJ) (Joule)
system.mem_ctrls.dram.rank1.refreshEnergy 5212147200.000001                       # Energy for refresh commands per rank (pJ) (Joule)
system.mem_ctrls.dram.rank1.actBackEnergy  15911820750                       # Energy for active background per rank (pJ) (Joule)
system.mem_ctrls.dram.rank1.preBackEnergy  11956932960                       # Energy for precharge background per rank (pJ) (Joule)
system.mem_ctrls.dram.rank1.actPowerDownEnergy            0                       # Energy for active power-down per rank (pJ) (Joule)
system.mem_ctrls.dram.rank1.prePowerDownEnergy            0                       # Energy for precharge power-down per rank (pJ) (Joule)
system.mem_ctrls.dram.rank1.selfRefreshEnergy            0                       # Energy for self refresh per rank (pJ) (Joule)
system.mem_ctrls.dram.rank1.totalEnergy   33763929375                       # Total energy per rank (pJ) (Joule)
system.mem_ctrls.dram.rank1.averagePower   511.325304                       # Core power per rank (mW) (Watt)
system.mem_ctrls.dram.rank1.totalIdleTime            0                       # Total Idle time Per DRAM Rank (Tick)
system.mem_ctrls.dram.rank1.pwrStateTime::IDLE  30942760750                       # Time in different power states (Tick)
system.mem_ctrls.dram.rank1.pwrStateTime::REF   2204800000                       # Time in different power states (Tick)
system.mem_ctrls.dram.rank1.pwrStateTime::SREF            0                       # Time in different power states (Tick)
system.mem_ctrls.dram.rank1.pwrStateTime::PRE_PDN            0                       # Time in different power states (Tick)
system.mem_ctrls.dram.rank1.pwrStateTime::ACT  32884628750                       # Time in different power states (Tick)
system.mem_ctrls.dram.rank1.pwrStateTime::ACT_PDN            0                       # Time in different power states (Tick)
system.mem_ctrls.power_state.pwrStateResidencyTicks::UNDEFINED  66032189500                       # Cumulative time (in ticks) in various power states (Tick)
system.membus.transDist::ReadResp               11287                       # Transaction distribution (Count)
system.membus.transDist::WritebackDirty         26080                       # Transaction distribution (Count)
system.membus.transDist::CleanEvict               136                       # Transaction distribution (Count)
system.membus.transDist::ReadExReq             141180                       # Transaction distribution (Count)
system.membus.transDist::ReadExResp            141180                       # Transaction distribution (Count)
system.membus.transDist::ReadSharedReq          11287                       # Transaction distribution (Count)
system.membus.transDist::InvalidateReq             28                       # Transaction distribution (Count)
system.membus.pktCount_system.l2.mem_side_port::system.mem_ctrls.port       331178                       # Packet count per connected requestor and responder (Count)
system.membus.pktCount::total                  331178                       # Packet count per connected requestor and responder (Count)
system.membus.pktSize_system.l2.mem_side_port::system.mem_ctrls.port      5713504                       # Cumulative packet size per connected requestor and responder (Byte)
system.membus.pktSize::total                  5713504                       # Cumulative packet size per connected requestor and responder (Byte)
system.membus.snoops                                0                       # Total snoops (Count)
system.membus.snoopTraffic                          0                       # Total snoop traffic (Byte)
system.membus.snoopFanout::samples             152495                       # Request fanout histogram (Count)
system.membus.snoopFanout::mean                     0                       # Request fanout histogram (Count)
system.membus.snoopFanout::stdev                    0                       # Request fanout histogram (Count)
system.membus.snoopFanout::underflows               0      0.00%      0.00% # Request fanout histogram (Count)
system.membus.snoopFanout::0                   152495    100.00%    100.00% # Request fanout histogram (Count)
system.membus.snoopFanout::1                        0      0.00%    100.00% # Request fanout histogram (Count)
system.membus.snoopFanout::overflows                0      0.00%    100.00% # Request fanout histogram (Count)
system.membus.snoopFanout::min_value                0                       # Request fanout histogram (Count)
system.membus.snoopFanout::max_value                0                       # Request fanout histogram (Count)
system.membus.snoopFanout::total               152495                       # Request fanout histogram (Count)
system.membus.power_state.pwrStateResidencyTicks::UNDEFINED  66032189500                       # Cumulative time (in ticks) in various power states (Tick)
system.membus.reqLayer0.occupancy           269797500                       # Layer occupancy (ticks) (Tick)
system.membus.reqLayer0.utilization               0.0                       # Layer utilization (Ratio)
system.membus.respLayer1.occupancy          515965500                       # Layer occupancy (ticks) (Tick)
system.membus.respLayer1.utilization              0.0                       # Layer utilization (Ratio)
system.membus.snoop_filter.totRequests         178711                       # Total number of requests made to the snoop filter. (Count)
system.membus.snoop_filter.hitSingleRequests        26216                       # Number of requests hitting in the snoop filter with a single holder of the requested data. (Count)
system.membus.snoop_filter.hitMultiRequests            0                       # Number of requests hitting in the snoop filter with multiple (>1) holders of the requested data. (Count)
system.membus.snoop_filter.totSnoops                0                       # Total number of snoops made to the snoop filter. (Count)
system.membus.snoop_filter.hitSingleSnoops            0                       # Number of snoops hitting in the snoop filter with a single holder of the requested data. (Count)
system.membus.snoop_filter.hitMultiSnoops            0                       # Number of snoops hitting in the snoop filter with multiple (>1) holders of the requested data. (Count)
system.tol2bus.transDist::ReadResp              27183                       # Transaction distribution (Count)
system.tol2bus.transDist::WritebackDirty       186296                       # Transaction distribution (Count)
system.tol2bus.transDist::WritebackClean           21                       # Transaction distribution (Count)
system.tol2bus.transDist::CleanEvict             4416                       # Transaction distribution (Count)
system.tol2bus.transDist::ReadExReq            141529                       # Transaction distribution (Count)
system.tol2bus.transDist::ReadExResp           141529                       # Transaction distribution (Count)
system.tol2bus.transDist::ReadCleanReq           1057                       # Transaction distribution (Count)
system.tol2bus.transDist::ReadSharedReq         26126                       # Transaction distribution (Count)
system.tol2bus.transDist::InvalidateReq            28                       # Transaction distribution (Count)
system.tol2bus.transDist::InvalidateResp           28                       # Transaction distribution (Count)
system.tol2bus.pktCount_system.cpu.icache.mem_side_port::system.l2.cpu_side_port         2135                       # Packet count per connected requestor and responder (Count)
system.tol2bus.pktCount_system.cpu.dcache.mem_side_port::system.l2.cpu_side_port       498953                       # Packet count per connected requestor and responder (Count)
system.tol2bus.pktCount::total                 501088                       # Packet count per connected requestor and responder (Count)
system.tol2bus.pktSize_system.cpu.icache.mem_side_port::system.l2.cpu_side_port        34496                       # Cumulative packet size per connected requestor and responder (Byte)
system.tol2bus.pktSize_system.cpu.dcache.mem_side_port::system.l2.cpu_side_port     10491872                       # Cumulative packet size per connected requestor and responder (Byte)
system.tol2bus.pktSize::total                10526368                       # Cumulative packet size per connected requestor and responder (Byte)
system.tol2bus.snoops                           27125                       # Total snoops (Count)
system.tol2bus.snoopTraffic                    834560                       # Total snoop traffic (Byte)
system.tol2bus.snoopFanout::samples            195865                       # Request fanout histogram (Count)
system.tol2bus.snoopFanout::mean             0.004728                       # Request fanout histogram (Count)
system.tol2bus.snoopFanout::stdev            0.068596                       # Request fanout histogram (Count)
system.tol2bus.snoopFanout::underflows              0      0.00%      0.00% # Request fanout histogram (Count)
system.tol2bus.snoopFanout::0                  194939     99.53%     99.53% # Request fanout histogram (Count)
system.tol2bus.snoopFanout::1                     926      0.47%    100.00% # Request fanout histogram (Count)
system.tol2bus.snoopFanout::2                       0      0.00%    100.00% # Request fanout histogram (Count)
system.tol2bus.snoopFanout::overflows               0      0.00%    100.00% # Request fanout histogram (Count)
system.tol2bus.snoopFanout::min_value               0                       # Request fanout histogram (Count)
system.tol2bus.snoopFanout::max_value               1                       # Request fanout histogram (Count)
system.tol2bus.snoopFanout::total              195865                       # Request fanout histogram (Count)
system.tol2bus.power_state.pwrStateResidencyTicks::UNDEFINED  66032189500                       # Cumulative time (in ticks) in various power states (Tick)
system.tol2bus.reqLayer0.occupancy          246292500                       # Layer occupancy (ticks) (Tick)
system.tol2bus.reqLayer0.utilization              0.0                       # Layer utilization (Ratio)
system.tol2bus.respLayer0.occupancy           1057000                       # Layer occupancy (ticks) (Tick)
system.tol2bus.respLayer0.utilization             0.0                       # Layer utilization (Ratio)
system.tol2bus.respLayer1.occupancy         167669000                       # Layer occupancy (ticks) (Tick)
system.tol2bus.respLayer1.utilization             0.0                       # Layer utilization (Ratio)
system.tol2bus.snoop_filter.totRequests        332348                       # Total number of requests made to the snoop filter. (Count)
system.tol2bus.snoop_filter.hitSingleRequests       163608                       # Number of requests hitting in the snoop filter with a single holder of the requested data. (Count)
system.tol2bus.snoop_filter.hitMultiRequests            3                       # Number of requests hitting in the snoop filter with multiple (>1) holders of the requested data. (Count)
system.tol2bus.snoop_filter.totSnoops             923                       # Total number of snoops made to the snoop filter. (Count)
system.tol2bus.snoop_filter.hitSingleSnoops          923                       # Number of snoops hitting in the snoop filter with a single holder of the requested data. (Count)
system.tol2bus.snoop_filter.hitMultiSnoops            0                       # Number of snoops hitting in the snoop filter with multiple (>1) holders of the requested data. (Count)
system.voltage_domain.voltage                       1                       # Voltage in Volts (Volt)
system.workload.inst.arm                            0                       # number of arm instructions executed (Count)
system.workload.inst.quiesce                        0                       # number of quiesce instructions executed (Count)
system.cpu.idleCycles                        13697768                       # Total number of cycles that the object has spent stopped (Unspecified)
system.cpu.tickCycles                       118366611                       # Number of cycles that the object actually ticked (Unspecified)

---------- End Simulation Statistics   ----------
