
---------- Begin Simulation Statistics ----------
simSeconds                                   0.443642                       # Number of seconds simulated (Second)
simTicks                                 443642286000                       # Number of ticks simulated (Tick)
finalTick                                443642286000                       # Number of ticks from beginning of simulation (restored from checkpoints and never reset) (Tick)
simFreq                                  1000000000000                       # The number of ticks per simulated second ((Tick/Second))
hostSeconds                                    275.46                       # Real time elapsed on the host (Second)
hostTickRate                               1610526071                       # The number of ticks simulated per host second (ticks/s) ((Tick/Second))
hostMemory                                     720012                       # Number of bytes of host memory used (Byte)
simInsts                                    100000000                       # Number of instructions simulated (Count)
simOps                                      100001797                       # Number of ops (including micro ops) simulated (Count)
hostInstRate                                   363023                       # Simulator instruction rate (inst/s) ((Count/Second))
hostOpRate                                     363030                       # Simulator op (including micro ops) rate (op/s) ((Count/Second))
system.clk_domain.clock                          1000                       # Clock period in ticks (Tick)
system.cpu.numCycles                        887284572                       # Number of cpu cycles simulated (Cycle)
system.cpu.numWorkItemsStarted                      0                       # Number of work items this cpu started (Count)
system.cpu.numWorkItemsCompleted                    0                       # Number of work items this cpu completed (Count)
system.cpu.numInsts                         100000000                       # Number of instructions committed (Count)
system.cpu.numOps                           100001797                       # Number of ops (including micro ops) committed (Count)
system.cpu.numDiscardedOps                      22255                       # Number of ops (including micro ops) which were discarded before commit (Count)
system.cpu.numFetchSuspends                         0                       # Number of times Execute suspended instruction fetching (Count)
system.cpu.cpi                               8.872846                       # CPI: cycles per instruction ((Cycle/Count))
system.cpu.ipc                               0.112703                       # IPC: instructions per cycle ((Count/Cycle))
system.cpu.committedInstType_0::No_OpClass           27      0.00%      0.00% # Class of committed instruction (Count)
system.cpu.committedInstType_0::IntAlu       55071421     55.07%     55.07% # Class of committed instruction (Count)
system.cpu.committedInstType_0::IntMult            39      0.00%     55.07% # Class of committed instruction (Count)
system.cpu.committedInstType_0::IntDiv              4      0.00%     55.07% # Class of committed instruction (Count)
system.cpu.committedInstType_0::FloatAdd            0      0.00%     55.07% # Class of committed instruction (Count)
system.cpu.committedInstType_0::FloatCmp            2      0.00%     55.07% # Class of committed instruction (Count)
system.cpu.committedInstType_0::FloatCvt            0      0.00%     55.07% # Class of committed instruction (Count)
system.cpu.committedInstType_0::FloatMult            0      0.00%     55.07% # Class of committed instruction (Count)
system.cpu.committedInstType_0::FloatMultAcc            0      0.00%     55.07% # Class of committed instruction (Count)
system.cpu.committedInstType_0::FloatDiv            0      0.00%     55.07% # Class of committed instruction (Count)
system.cpu.committedInstType_0::FloatMisc       534631      0.53%     55.61% # Class of committed instruction (Count)
system.cpu.committedInstType_0::FloatSqrt            0      0.00%     55.61% # Class of committed instruction (Count)
system.cpu.committedInstType_0::SimdAdd            19      0.00%     55.61% # Class of committed instruction (Count)
system.cpu.committedInstType_0::SimdAddAcc            0      0.00%     55.61% # Class of committed instruction (Count)
system.cpu.committedInstType_0::SimdAlu            24      0.00%     55.61% # Class of committed instruction (Count)
system.cpu.committedInstType_0::SimdCmp            70      0.00%     55.61% # Class of committed instruction (Count)
system.cpu.committedInstType_0::SimdCvt             0      0.00%     55.61% # Class of committed instruction (Count)
system.cpu.committedInstType_0::SimdMisc           25      0.00%     55.61% # Class of committed instruction (Count)
system.cpu.committedInstType_0::SimdMult            0      0.00%     55.61% # Class of committed instruction (Count)
system.cpu.committedInstType_0::SimdMultAcc            0      0.00%     55.61% # Class of committed instruction (Count)
system.cpu.committedInstType_0::SimdShift            0      0.00%     55.61% # Class of committed instruction (Count)
system.cpu.committedInstType_0::SimdShiftAcc            0      0.00%     55.61% # Class of committed instruction (Count)
system.cpu.committedInstType_0::SimdDiv             0      0.00%     55.61% # Class of committed instruction (Count)
system.cpu.committedInstType_0::SimdSqrt            0      0.00%     55.61% # Class of committed instruction (Count)
system.cpu.committedInstType_0::SimdFloatAdd            0      0.00%     55.61% # Class of committed instruction (Count)
system.cpu.committedInstType_0::SimdFloatAlu            0      0.00%     55.61% # Class of committed instruction (Count)
system.cpu.committedInstType_0::SimdFloatCmp            0      0.00%     55.61% # Class of committed instruction (Count)
system.cpu.committedInstType_0::SimdFloatCvt            0      0.00%     55.61% # Class of committed instruction (Count)
system.cpu.committedInstType_0::SimdFloatDiv            0      0.00%     55.61% # Class of committed instruction (Count)
system.cpu.committedInstType_0::SimdFloatMisc            0      0.00%     55.61% # Class of committed instruction (Count)
system.cpu.committedInstType_0::SimdFloatMult            0      0.00%     55.61% # Class of committed instruction (Count)
system.cpu.committedInstType_0::SimdFloatMultAcc            0      0.00%     55.61% # Class of committed instruction (Count)
system.cpu.committedInstType_0::SimdFloatSqrt            0      0.00%     55.61% # Class of committed instruction (Count)
system.cpu.committedInstType_0::SimdReduceAdd            0      0.00%     55.61% # Class of committed instruction (Count)
system.cpu.committedInstType_0::SimdReduceAlu            0      0.00%     55.61% # Class of committed instruction (Count)
system.cpu.committedInstType_0::SimdReduceCmp            0      0.00%     55.61% # Class of committed instruction (Count)
system.cpu.committedInstType_0::SimdFloatReduceAdd            0      0.00%     55.61% # Class of committed instruction (Count)
system.cpu.committedInstType_0::SimdFloatReduceCmp            0      0.00%     55.61% # Class of committed instruction (Count)
system.cpu.committedInstType_0::SimdAes             0      0.00%     55.61% # Class of committed instruction (Count)
system.cpu.committedInstType_0::SimdAesMix            0      0.00%     55.61% # Class of committed instruction (Count)
system.cpu.committedInstType_0::SimdSha1Hash            0      0.00%     55.61% # Class of committed instruction (Count)
system.cpu.committedInstType_0::SimdSha1Hash2            0      0.00%     55.61% # Class of committed instruction (Count)
system.cpu.committedInstType_0::SimdSha256Hash            0      0.00%     55.61% # Class of committed instruction (Count)
system.cpu.committedInstType_0::SimdSha256Hash2            0      0.00%     55.61% # Class of committed instruction (Count)
system.cpu.committedInstType_0::SimdShaSigma2            0      0.00%     55.61% # Class of committed instruction (Count)
system.cpu.committedInstType_0::SimdShaSigma3            0      0.00%     55.61% # Class of committed instruction (Count)
system.cpu.committedInstType_0::SimdPredAlu            0      0.00%     55.61% # Class of committed instruction (Count)
system.cpu.committedInstType_0::MemRead      32611791     32.61%     88.22% # Class of committed instruction (Count)
system.cpu.committedInstType_0::MemWrite     11783744     11.78%    100.00% # Class of committed instruction (Count)
system.cpu.committedInstType_0::FloatMemRead            0      0.00%    100.00% # Class of committed instruction (Count)
system.cpu.committedInstType_0::FloatMemWrite            0      0.00%    100.00% # Class of committed instruction (Count)
system.cpu.committedInstType_0::IprAccess            0      0.00%    100.00% # Class of committed instruction (Count)
system.cpu.committedInstType_0::InstPrefetch            0      0.00%    100.00% # Class of committed instruction (Count)
system.cpu.committedInstType_0::total       100001797                       # Class of committed instruction (Count)
system.cpu.branchPred.lookups                  541747                       # Number of BP lookups (Count)
system.cpu.branchPred.condPredicted            540881                       # Number of conditional branches predicted (Count)
system.cpu.branchPred.condIncorrect               675                       # Number of conditional branches incorrect (Count)
system.cpu.branchPred.BTBLookups               540045                       # Number of BTB lookups (Count)
system.cpu.branchPred.BTBHits                  539346                       # Number of BTB hits (Count)
system.cpu.branchPred.BTBHitRatio            0.998706                       # BTB Hit Ratio (Ratio)
system.cpu.branchPred.RASUsed                     295                       # Number of times the RAS was used to get a target. (Count)
system.cpu.branchPred.RASIncorrect                 16                       # Number of incorrect RAS predictions. (Count)
system.cpu.branchPred.indirectLookups             111                       # Number of indirect predictor lookups. (Count)
system.cpu.branchPred.indirectHits                 30                       # Number of indirect target hits. (Count)
system.cpu.branchPred.indirectMisses               81                       # Number of indirect misses. (Count)
system.cpu.branchPred.indirectMispredicted           57                       # Number of mispredicted indirect branches. (Count)
system.cpu.dcache.demandHits::cpu.data       32612939                       # number of demand (read+write) hits (Count)
system.cpu.dcache.demandHits::total          32612939                       # number of demand (read+write) hits (Count)
system.cpu.dcache.overallHits::cpu.data      32612939                       # number of overall hits (Count)
system.cpu.dcache.overallHits::total         32612939                       # number of overall hits (Count)
system.cpu.dcache.demandMisses::cpu.data     10692804                       # number of demand (read+write) misses (Count)
system.cpu.dcache.demandMisses::total        10692804                       # number of demand (read+write) misses (Count)
system.cpu.dcache.overallMisses::cpu.data     10692804                       # number of overall misses (Count)
system.cpu.dcache.overallMisses::total       10692804                       # number of overall misses (Count)
system.cpu.dcache.demandMissLatency::cpu.data 799471833000                       # number of demand (read+write) miss ticks (Tick)
system.cpu.dcache.demandMissLatency::total 799471833000                       # number of demand (read+write) miss ticks (Tick)
system.cpu.dcache.overallMissLatency::cpu.data 799471833000                       # number of overall miss ticks (Tick)
system.cpu.dcache.overallMissLatency::total 799471833000                       # number of overall miss ticks (Tick)
system.cpu.dcache.demandAccesses::cpu.data     43305743                       # number of demand (read+write) accesses (Count)
system.cpu.dcache.demandAccesses::total      43305743                       # number of demand (read+write) accesses (Count)
system.cpu.dcache.overallAccesses::cpu.data     43305743                       # number of overall (read+write) accesses (Count)
system.cpu.dcache.overallAccesses::total     43305743                       # number of overall (read+write) accesses (Count)
system.cpu.dcache.demandMissRate::cpu.data     0.246914                       # miss rate for demand accesses (Ratio)
system.cpu.dcache.demandMissRate::total      0.246914                       # miss rate for demand accesses (Ratio)
system.cpu.dcache.overallMissRate::cpu.data     0.246914                       # miss rate for overall accesses (Ratio)
system.cpu.dcache.overallMissRate::total     0.246914                       # miss rate for overall accesses (Ratio)
system.cpu.dcache.demandAvgMissLatency::cpu.data 74767.276479                       # average overall miss latency in ticks ((Tick/Count))
system.cpu.dcache.demandAvgMissLatency::total 74767.276479                       # average overall miss latency in ticks ((Tick/Count))
system.cpu.dcache.overallAvgMissLatency::cpu.data 74767.276479                       # average overall miss latency ((Tick/Count))
system.cpu.dcache.overallAvgMissLatency::total 74767.276479                       # average overall miss latency ((Tick/Count))
system.cpu.dcache.blockedCycles::no_mshrs            0                       # number of cycles access was blocked (Cycle)
system.cpu.dcache.blockedCycles::no_targets            0                       # number of cycles access was blocked (Cycle)
system.cpu.dcache.blockedCauses::no_mshrs            0                       # number of times access was blocked (Count)
system.cpu.dcache.blockedCauses::no_targets            0                       # number of times access was blocked (Count)
system.cpu.dcache.avgBlocked::no_mshrs            nan                       # average number of cycles each access was blocked ((Cycle/Count))
system.cpu.dcache.avgBlocked::no_targets          nan                       # average number of cycles each access was blocked ((Cycle/Count))
system.cpu.dcache.writebacks::writebacks      5342284                       # number of writebacks (Count)
system.cpu.dcache.writebacks::total           5342284                       # number of writebacks (Count)
system.cpu.dcache.demandMshrHits::cpu.data      5346198                       # number of demand (read+write) MSHR hits (Count)
system.cpu.dcache.demandMshrHits::total       5346198                       # number of demand (read+write) MSHR hits (Count)
system.cpu.dcache.overallMshrHits::cpu.data      5346198                       # number of overall MSHR hits (Count)
system.cpu.dcache.overallMshrHits::total      5346198                       # number of overall MSHR hits (Count)
system.cpu.dcache.demandMshrMisses::cpu.data      5346606                       # number of demand (read+write) MSHR misses (Count)
system.cpu.dcache.demandMshrMisses::total      5346606                       # number of demand (read+write) MSHR misses (Count)
system.cpu.dcache.overallMshrMisses::cpu.data      5346606                       # number of overall MSHR misses (Count)
system.cpu.dcache.overallMshrMisses::total      5346606                       # number of overall MSHR misses (Count)
system.cpu.dcache.demandMshrMissLatency::cpu.data 408717870000                       # number of demand (read+write) MSHR miss ticks (Tick)
system.cpu.dcache.demandMshrMissLatency::total 408717870000                       # number of demand (read+write) MSHR miss ticks (Tick)
system.cpu.dcache.overallMshrMissLatency::cpu.data 408717870000                       # number of overall MSHR miss ticks (Tick)
system.cpu.dcache.overallMshrMissLatency::total 408717870000                       # number of overall MSHR miss ticks (Tick)
system.cpu.dcache.demandMshrMissRate::cpu.data     0.123462                       # mshr miss ratio for demand accesses (Ratio)
system.cpu.dcache.demandMshrMissRate::total     0.123462                       # mshr miss ratio for demand accesses (Ratio)
system.cpu.dcache.overallMshrMissRate::cpu.data     0.123462                       # mshr miss ratio for overall accesses (Ratio)
system.cpu.dcache.overallMshrMissRate::total     0.123462                       # mshr miss ratio for overall accesses (Ratio)
system.cpu.dcache.demandAvgMshrMissLatency::cpu.data 76444.359281                       # average overall mshr miss latency ((Tick/Count))
system.cpu.dcache.demandAvgMshrMissLatency::total 76444.359281                       # average overall mshr miss latency ((Tick/Count))
system.cpu.dcache.overallAvgMshrMissLatency::cpu.data 76444.359281                       # average overall mshr miss latency ((Tick/Count))
system.cpu.dcache.overallAvgMshrMissLatency::total 76444.359281                       # average overall mshr miss latency ((Tick/Count))
system.cpu.dcache.replacements                5342512                       # number of replacements (Count)
system.cpu.dcache.LoadLockedReq.hits::cpu.data            2                       # number of LoadLockedReq hits (Count)
system.cpu.dcache.LoadLockedReq.hits::total            2                       # number of LoadLockedReq hits (Count)
system.cpu.dcache.LoadLockedReq.misses::cpu.data            2                       # number of LoadLockedReq misses (Count)
system.cpu.dcache.LoadLockedReq.misses::total            2                       # number of LoadLockedReq misses (Count)
system.cpu.dcache.LoadLockedReq.missLatency::cpu.data       178000                       # number of LoadLockedReq miss ticks (Tick)
system.cpu.dcache.LoadLockedReq.missLatency::total       178000                       # number of LoadLockedReq miss ticks (Tick)
system.cpu.dcache.LoadLockedReq.accesses::cpu.data            4                       # number of LoadLockedReq accesses(hits+misses) (Count)
system.cpu.dcache.LoadLockedReq.accesses::total            4                       # number of LoadLockedReq accesses(hits+misses) (Count)
system.cpu.dcache.LoadLockedReq.missRate::cpu.data     0.500000                       # miss rate for LoadLockedReq accesses (Ratio)
system.cpu.dcache.LoadLockedReq.missRate::total     0.500000                       # miss rate for LoadLockedReq accesses (Ratio)
system.cpu.dcache.LoadLockedReq.avgMissLatency::cpu.data        89000                       # average LoadLockedReq miss latency ((Tick/Count))
system.cpu.dcache.LoadLockedReq.avgMissLatency::total        89000                       # average LoadLockedReq miss latency ((Tick/Count))
system.cpu.dcache.LoadLockedReq.mshrMisses::cpu.data            2                       # number of LoadLockedReq MSHR misses (Count)
system.cpu.dcache.LoadLockedReq.mshrMisses::total            2                       # number of LoadLockedReq MSHR misses (Count)
system.cpu.dcache.LoadLockedReq.mshrMissLatency::cpu.data       176000                       # number of LoadLockedReq MSHR miss ticks (Tick)
system.cpu.dcache.LoadLockedReq.mshrMissLatency::total       176000                       # number of LoadLockedReq MSHR miss ticks (Tick)
system.cpu.dcache.LoadLockedReq.mshrMissRate::cpu.data     0.500000                       # mshr miss rate for LoadLockedReq accesses (Ratio)
system.cpu.dcache.LoadLockedReq.mshrMissRate::total     0.500000                       # mshr miss rate for LoadLockedReq accesses (Ratio)
system.cpu.dcache.LoadLockedReq.avgMshrMissLatency::cpu.data        88000                       # average LoadLockedReq mshr miss latency ((Tick/Count))
system.cpu.dcache.LoadLockedReq.avgMshrMissLatency::total        88000                       # average LoadLockedReq mshr miss latency ((Tick/Count))
system.cpu.dcache.ReadReq.hits::cpu.data     31542594                       # number of ReadReq hits (Count)
system.cpu.dcache.ReadReq.hits::total        31542594                       # number of ReadReq hits (Count)
system.cpu.dcache.ReadReq.misses::cpu.data          266                       # number of ReadReq misses (Count)
system.cpu.dcache.ReadReq.misses::total           266                       # number of ReadReq misses (Count)
system.cpu.dcache.ReadReq.missLatency::cpu.data     21378000                       # number of ReadReq miss ticks (Tick)
system.cpu.dcache.ReadReq.missLatency::total     21378000                       # number of ReadReq miss ticks (Tick)
system.cpu.dcache.ReadReq.accesses::cpu.data     31542860                       # number of ReadReq accesses(hits+misses) (Count)
system.cpu.dcache.ReadReq.accesses::total     31542860                       # number of ReadReq accesses(hits+misses) (Count)
system.cpu.dcache.ReadReq.missRate::cpu.data     0.000008                       # miss rate for ReadReq accesses (Ratio)
system.cpu.dcache.ReadReq.missRate::total     0.000008                       # miss rate for ReadReq accesses (Ratio)
system.cpu.dcache.ReadReq.avgMissLatency::cpu.data 80368.421053                       # average ReadReq miss latency ((Tick/Count))
system.cpu.dcache.ReadReq.avgMissLatency::total 80368.421053                       # average ReadReq miss latency ((Tick/Count))
system.cpu.dcache.ReadReq.mshrHits::cpu.data            8                       # number of ReadReq MSHR hits (Count)
system.cpu.dcache.ReadReq.mshrHits::total            8                       # number of ReadReq MSHR hits (Count)
system.cpu.dcache.ReadReq.mshrMisses::cpu.data          258                       # number of ReadReq MSHR misses (Count)
system.cpu.dcache.ReadReq.mshrMisses::total          258                       # number of ReadReq MSHR misses (Count)
system.cpu.dcache.ReadReq.mshrMissLatency::cpu.data     20671500                       # number of ReadReq MSHR miss ticks (Tick)
system.cpu.dcache.ReadReq.mshrMissLatency::total     20671500                       # number of ReadReq MSHR miss ticks (Tick)
system.cpu.dcache.ReadReq.mshrMissRate::cpu.data     0.000008                       # mshr miss rate for ReadReq accesses (Ratio)
system.cpu.dcache.ReadReq.mshrMissRate::total     0.000008                       # mshr miss rate for ReadReq accesses (Ratio)
system.cpu.dcache.ReadReq.avgMshrMissLatency::cpu.data 80122.093023                       # average ReadReq mshr miss latency ((Tick/Count))
system.cpu.dcache.ReadReq.avgMshrMissLatency::total 80122.093023                       # average ReadReq mshr miss latency ((Tick/Count))
system.cpu.dcache.StoreCondReq.hits::cpu.data            4                       # number of StoreCondReq hits (Count)
system.cpu.dcache.StoreCondReq.hits::total            4                       # number of StoreCondReq hits (Count)
system.cpu.dcache.StoreCondReq.accesses::cpu.data            4                       # number of StoreCondReq accesses(hits+misses) (Count)
system.cpu.dcache.StoreCondReq.accesses::total            4                       # number of StoreCondReq accesses(hits+misses) (Count)
system.cpu.dcache.SwapReq.hits::cpu.data           10                       # number of SwapReq hits (Count)
system.cpu.dcache.SwapReq.hits::total              10                       # number of SwapReq hits (Count)
system.cpu.dcache.SwapReq.accesses::cpu.data           10                       # number of SwapReq accesses(hits+misses) (Count)
system.cpu.dcache.SwapReq.accesses::total           10                       # number of SwapReq accesses(hits+misses) (Count)
system.cpu.dcache.WriteLineReq.misses::cpu.data           28                       # number of WriteLineReq misses (Count)
system.cpu.dcache.WriteLineReq.misses::total           28                       # number of WriteLineReq misses (Count)
system.cpu.dcache.WriteLineReq.missLatency::cpu.data       885000                       # number of WriteLineReq miss ticks (Tick)
system.cpu.dcache.WriteLineReq.missLatency::total       885000                       # number of WriteLineReq miss ticks (Tick)
system.cpu.dcache.WriteLineReq.accesses::cpu.data           28                       # number of WriteLineReq accesses(hits+misses) (Count)
system.cpu.dcache.WriteLineReq.accesses::total           28                       # number of WriteLineReq accesses(hits+misses) (Count)
system.cpu.dcache.WriteLineReq.missRate::cpu.data            1                       # miss rate for WriteLineReq accesses (Ratio)
system.cpu.dcache.WriteLineReq.missRate::total            1                       # miss rate for WriteLineReq accesses (Ratio)
system.cpu.dcache.WriteLineReq.avgMissLatency::cpu.data 31607.142857                       # average WriteLineReq miss latency ((Tick/Count))
system.cpu.dcache.WriteLineReq.avgMissLatency::total 31607.142857                       # average WriteLineReq miss latency ((Tick/Count))
system.cpu.dcache.WriteLineReq.mshrMisses::cpu.data           28                       # number of WriteLineReq MSHR misses (Count)
system.cpu.dcache.WriteLineReq.mshrMisses::total           28                       # number of WriteLineReq MSHR misses (Count)
system.cpu.dcache.WriteLineReq.mshrMissLatency::cpu.data       857000                       # number of WriteLineReq MSHR miss ticks (Tick)
system.cpu.dcache.WriteLineReq.mshrMissLatency::total       857000                       # number of WriteLineReq MSHR miss ticks (Tick)
system.cpu.dcache.WriteLineReq.mshrMissRate::cpu.data            1                       # mshr miss rate for WriteLineReq accesses (Ratio)
system.cpu.dcache.WriteLineReq.mshrMissRate::total            1                       # mshr miss rate for WriteLineReq accesses (Ratio)
system.cpu.dcache.WriteLineReq.avgMshrMissLatency::cpu.data 30607.142857                       # average WriteLineReq mshr miss latency ((Tick/Count))
system.cpu.dcache.WriteLineReq.avgMshrMissLatency::total 30607.142857                       # average WriteLineReq mshr miss latency ((Tick/Count))
system.cpu.dcache.WriteReq.hits::cpu.data      1070345                       # number of WriteReq hits (Count)
system.cpu.dcache.WriteReq.hits::total        1070345                       # number of WriteReq hits (Count)
system.cpu.dcache.WriteReq.misses::cpu.data     10692510                       # number of WriteReq misses (Count)
system.cpu.dcache.WriteReq.misses::total     10692510                       # number of WriteReq misses (Count)
system.cpu.dcache.WriteReq.missLatency::cpu.data 799449570000                       # number of WriteReq miss ticks (Tick)
system.cpu.dcache.WriteReq.missLatency::total 799449570000                       # number of WriteReq miss ticks (Tick)
system.cpu.dcache.WriteReq.accesses::cpu.data     11762855                       # number of WriteReq accesses(hits+misses) (Count)
system.cpu.dcache.WriteReq.accesses::total     11762855                       # number of WriteReq accesses(hits+misses) (Count)
system.cpu.dcache.WriteReq.missRate::cpu.data     0.909006                       # miss rate for WriteReq accesses (Ratio)
system.cpu.dcache.WriteReq.missRate::total     0.909006                       # miss rate for WriteReq accesses (Ratio)
system.cpu.dcache.WriteReq.avgMissLatency::cpu.data 74767.250159                       # average WriteReq miss latency ((Tick/Count))
system.cpu.dcache.WriteReq.avgMissLatency::total 74767.250159                       # average WriteReq miss latency ((Tick/Count))
system.cpu.dcache.WriteReq.mshrHits::cpu.data      5346190                       # number of WriteReq MSHR hits (Count)
system.cpu.dcache.WriteReq.mshrHits::total      5346190                       # number of WriteReq MSHR hits (Count)
system.cpu.dcache.WriteReq.mshrMisses::cpu.data      5346320                       # number of WriteReq MSHR misses (Count)
system.cpu.dcache.WriteReq.mshrMisses::total      5346320                       # number of WriteReq MSHR misses (Count)
system.cpu.dcache.WriteReq.mshrMissLatency::cpu.data 408696341500                       # number of WriteReq MSHR miss ticks (Tick)
system.cpu.dcache.WriteReq.mshrMissLatency::total 408696341500                       # number of WriteReq MSHR miss ticks (Tick)
system.cpu.dcache.WriteReq.mshrMissRate::cpu.data     0.454509                       # mshr miss rate for WriteReq accesses (Ratio)
system.cpu.dcache.WriteReq.mshrMissRate::total     0.454509                       # mshr miss rate for WriteReq accesses (Ratio)
system.cpu.dcache.WriteReq.avgMshrMissLatency::cpu.data 76444.421864                       # average WriteReq mshr miss latency ((Tick/Count))
system.cpu.dcache.WriteReq.avgMshrMissLatency::total 76444.421864                       # average WriteReq mshr miss latency ((Tick/Count))
system.cpu.dcache.power_state.pwrStateResidencyTicks::UNDEFINED 443642286000                       # Cumulative time (in ticks) in various power states (Tick)
system.cpu.dcache.tags.tagsInUse          4093.646837                       # Average ticks per tags in use ((Tick/Count))
system.cpu.dcache.tags.totalRefs             37959563                       # Total number of references to valid blocks. (Count)
system.cpu.dcache.tags.sampledRefs            5346608                       # Sample count of references to valid blocks. (Count)
system.cpu.dcache.tags.avgRefs               7.099747                       # Average number of references to valid blocks. ((Count/Count))
system.cpu.dcache.tags.warmupTick              249500                       # The tick when the warmup percentage was hit. (Tick)
system.cpu.dcache.tags.occupancies::cpu.data  4093.646837                       # Average occupied blocks per tick, per requestor ((Count/Tick))
system.cpu.dcache.tags.avgOccs::cpu.data     0.999425                       # Average percentage of cache occupancy ((Ratio/Tick))
system.cpu.dcache.tags.avgOccs::total        0.999425                       # Average percentage of cache occupancy ((Ratio/Tick))
system.cpu.dcache.tags.occupanciesTaskId::1024         4096                       # Occupied blocks per task id (Count)
system.cpu.dcache.tags.ageTaskId_1024::0          124                       # Occupied blocks per task id, per block age (Count)
system.cpu.dcache.tags.ageTaskId_1024::1         1082                       # Occupied blocks per task id, per block age (Count)
system.cpu.dcache.tags.ageTaskId_1024::2         2887                       # Occupied blocks per task id, per block age (Count)
system.cpu.dcache.tags.ageTaskId_1024::4            3                       # Occupied blocks per task id, per block age (Count)
system.cpu.dcache.tags.ratioOccsTaskId::1024            1                       # Ratio of occupied blocks and all blocks, per task id (Ratio)
system.cpu.dcache.tags.tagAccesses           91958130                       # Number of tag accesses (Count)
system.cpu.dcache.tags.dataAccesses          91958130                       # Number of data accesses (Count)
system.cpu.dcache.tags.power_state.pwrStateResidencyTicks::UNDEFINED 443642286000                       # Cumulative time (in ticks) in various power states (Tick)
system.cpu.fetch2.intInstructions            54795601                       # Number of integer instructions successfully decoded (Count)
system.cpu.fetch2.fpInstructions                    0                       # Number of floating point instructions successfully decoded (Count)
system.cpu.fetch2.vecInstructions              534809                       # Number of SIMD instructions successfully decoded (Count)
system.cpu.fetch2.loadInstructions           32758064                       # Number of memory load instructions successfully decoded (Count)
system.cpu.fetch2.storeInstructions          11828618                       # Number of memory store instructions successfully decoded (Count)
system.cpu.fetch2.amoInstructions                  11                       # Number of memory atomic instructions successfully decoded (Count)
system.cpu.icache.demandHits::cpu.inst       26374844                       # number of demand (read+write) hits (Count)
system.cpu.icache.demandHits::total          26374844                       # number of demand (read+write) hits (Count)
system.cpu.icache.overallHits::cpu.inst      26374844                       # number of overall hits (Count)
system.cpu.icache.overallHits::total         26374844                       # number of overall hits (Count)
system.cpu.icache.demandMisses::cpu.inst         1585                       # number of demand (read+write) misses (Count)
system.cpu.icache.demandMisses::total            1585                       # number of demand (read+write) misses (Count)
system.cpu.icache.overallMisses::cpu.inst         1585                       # number of overall misses (Count)
system.cpu.icache.overallMisses::total           1585                       # number of overall misses (Count)
system.cpu.icache.demandMissLatency::cpu.inst    120920000                       # number of demand (read+write) miss ticks (Tick)
system.cpu.icache.demandMissLatency::total    120920000                       # number of demand (read+write) miss ticks (Tick)
system.cpu.icache.overallMissLatency::cpu.inst    120920000                       # number of overall miss ticks (Tick)
system.cpu.icache.overallMissLatency::total    120920000                       # number of overall miss ticks (Tick)
system.cpu.icache.demandAccesses::cpu.inst     26376429                       # number of demand (read+write) accesses (Count)
system.cpu.icache.demandAccesses::total      26376429                       # number of demand (read+write) accesses (Count)
system.cpu.icache.overallAccesses::cpu.inst     26376429                       # number of overall (read+write) accesses (Count)
system.cpu.icache.overallAccesses::total     26376429                       # number of overall (read+write) accesses (Count)
system.cpu.icache.demandMissRate::cpu.inst     0.000060                       # miss rate for demand accesses (Ratio)
system.cpu.icache.demandMissRate::total      0.000060                       # miss rate for demand accesses (Ratio)
system.cpu.icache.overallMissRate::cpu.inst     0.000060                       # miss rate for overall accesses (Ratio)
system.cpu.icache.overallMissRate::total     0.000060                       # miss rate for overall accesses (Ratio)
system.cpu.icache.demandAvgMissLatency::cpu.inst 76290.220820                       # average overall miss latency in ticks ((Tick/Count))
system.cpu.icache.demandAvgMissLatency::total 76290.220820                       # average overall miss latency in ticks ((Tick/Count))
system.cpu.icache.overallAvgMissLatency::cpu.inst 76290.220820                       # average overall miss latency ((Tick/Count))
system.cpu.icache.overallAvgMissLatency::total 76290.220820                       # average overall miss latency ((Tick/Count))
system.cpu.icache.blockedCycles::no_mshrs            0                       # number of cycles access was blocked (Cycle)
system.cpu.icache.blockedCycles::no_targets            0                       # number of cycles access was blocked (Cycle)
system.cpu.icache.blockedCauses::no_mshrs            0                       # number of times access was blocked (Count)
system.cpu.icache.blockedCauses::no_targets            0                       # number of times access was blocked (Count)
system.cpu.icache.avgBlocked::no_mshrs            nan                       # average number of cycles each access was blocked ((Cycle/Count))
system.cpu.icache.avgBlocked::no_targets          nan                       # average number of cycles each access was blocked ((Cycle/Count))
system.cpu.icache.writebacks::writebacks          229                       # number of writebacks (Count)
system.cpu.icache.writebacks::total               229                       # number of writebacks (Count)
system.cpu.icache.demandMshrMisses::cpu.inst         1585                       # number of demand (read+write) MSHR misses (Count)
system.cpu.icache.demandMshrMisses::total         1585                       # number of demand (read+write) MSHR misses (Count)
system.cpu.icache.overallMshrMisses::cpu.inst         1585                       # number of overall MSHR misses (Count)
system.cpu.icache.overallMshrMisses::total         1585                       # number of overall MSHR misses (Count)
system.cpu.icache.demandMshrMissLatency::cpu.inst    119335000                       # number of demand (read+write) MSHR miss ticks (Tick)
system.cpu.icache.demandMshrMissLatency::total    119335000                       # number of demand (read+write) MSHR miss ticks (Tick)
system.cpu.icache.overallMshrMissLatency::cpu.inst    119335000                       # number of overall MSHR miss ticks (Tick)
system.cpu.icache.overallMshrMissLatency::total    119335000                       # number of overall MSHR miss ticks (Tick)
system.cpu.icache.demandMshrMissRate::cpu.inst     0.000060                       # mshr miss ratio for demand accesses (Ratio)
system.cpu.icache.demandMshrMissRate::total     0.000060                       # mshr miss ratio for demand accesses (Ratio)
system.cpu.icache.overallMshrMissRate::cpu.inst     0.000060                       # mshr miss ratio for overall accesses (Ratio)
system.cpu.icache.overallMshrMissRate::total     0.000060                       # mshr miss ratio for overall accesses (Ratio)
system.cpu.icache.demandAvgMshrMissLatency::cpu.inst 75290.220820                       # average overall mshr miss latency ((Tick/Count))
system.cpu.icache.demandAvgMshrMissLatency::total 75290.220820                       # average overall mshr miss latency ((Tick/Count))
system.cpu.icache.overallAvgMshrMissLatency::cpu.inst 75290.220820                       # average overall mshr miss latency ((Tick/Count))
system.cpu.icache.overallAvgMshrMissLatency::total 75290.220820                       # average overall mshr miss latency ((Tick/Count))
system.cpu.icache.replacements                    229                       # number of replacements (Count)
system.cpu.icache.ReadReq.hits::cpu.inst     26374844                       # number of ReadReq hits (Count)
system.cpu.icache.ReadReq.hits::total        26374844                       # number of ReadReq hits (Count)
system.cpu.icache.ReadReq.misses::cpu.inst         1585                       # number of ReadReq misses (Count)
system.cpu.icache.ReadReq.misses::total          1585                       # number of ReadReq misses (Count)
system.cpu.icache.ReadReq.missLatency::cpu.inst    120920000                       # number of ReadReq miss ticks (Tick)
system.cpu.icache.ReadReq.missLatency::total    120920000                       # number of ReadReq miss ticks (Tick)
system.cpu.icache.ReadReq.accesses::cpu.inst     26376429                       # number of ReadReq accesses(hits+misses) (Count)
system.cpu.icache.ReadReq.accesses::total     26376429                       # number of ReadReq accesses(hits+misses) (Count)
system.cpu.icache.ReadReq.missRate::cpu.inst     0.000060                       # miss rate for ReadReq accesses (Ratio)
system.cpu.icache.ReadReq.missRate::total     0.000060                       # miss rate for ReadReq accesses (Ratio)
system.cpu.icache.ReadReq.avgMissLatency::cpu.inst 76290.220820                       # average ReadReq miss latency ((Tick/Count))
system.cpu.icache.ReadReq.avgMissLatency::total 76290.220820                       # average ReadReq miss latency ((Tick/Count))
system.cpu.icache.ReadReq.mshrMisses::cpu.inst         1585                       # number of ReadReq MSHR misses (Count)
system.cpu.icache.ReadReq.mshrMisses::total         1585                       # number of ReadReq MSHR misses (Count)
system.cpu.icache.ReadReq.mshrMissLatency::cpu.inst    119335000                       # number of ReadReq MSHR miss ticks (Tick)
system.cpu.icache.ReadReq.mshrMissLatency::total    119335000                       # number of ReadReq MSHR miss ticks (Tick)
system.cpu.icache.ReadReq.mshrMissRate::cpu.inst     0.000060                       # mshr miss rate for ReadReq accesses (Ratio)
system.cpu.icache.ReadReq.mshrMissRate::total     0.000060                       # mshr miss rate for ReadReq accesses (Ratio)
system.cpu.icache.ReadReq.avgMshrMissLatency::cpu.inst 75290.220820                       # average ReadReq mshr miss latency ((Tick/Count))
system.cpu.icache.ReadReq.avgMshrMissLatency::total 75290.220820                       # average ReadReq mshr miss latency ((Tick/Count))
system.cpu.icache.power_state.pwrStateResidencyTicks::UNDEFINED 443642286000                       # Cumulative time (in ticks) in various power states (Tick)
system.cpu.icache.tags.tagsInUse          1355.804061                       # Average ticks per tags in use ((Tick/Count))
system.cpu.icache.tags.totalRefs             26376429                       # Total number of references to valid blocks. (Count)
system.cpu.icache.tags.sampledRefs               1585                       # Sample count of references to valid blocks. (Count)
system.cpu.icache.tags.avgRefs           16641.280126                       # Average number of references to valid blocks. ((Count/Count))
system.cpu.icache.tags.warmupTick               87500                       # The tick when the warmup percentage was hit. (Tick)
system.cpu.icache.tags.occupancies::cpu.inst  1355.804061                       # Average occupied blocks per tick, per requestor ((Count/Tick))
system.cpu.icache.tags.avgOccs::cpu.inst     0.662014                       # Average percentage of cache occupancy ((Ratio/Tick))
system.cpu.icache.tags.avgOccs::total        0.662014                       # Average percentage of cache occupancy ((Ratio/Tick))
system.cpu.icache.tags.occupanciesTaskId::1024         1356                       # Occupied blocks per task id (Count)
system.cpu.icache.tags.ageTaskId_1024::4         1356                       # Occupied blocks per task id, per block age (Count)
system.cpu.icache.tags.ratioOccsTaskId::1024     0.662109                       # Ratio of occupied blocks and all blocks, per task id (Ratio)
system.cpu.icache.tags.tagAccesses           52754443                       # Number of tag accesses (Count)
system.cpu.icache.tags.dataAccesses          52754443                       # Number of data accesses (Count)
system.cpu.icache.tags.power_state.pwrStateResidencyTicks::UNDEFINED 443642286000                       # Cumulative time (in ticks) in various power states (Tick)
system.cpu.mmu.alignFaults                          0                       # Number of MMU faults due to alignment restrictions (Count)
system.cpu.mmu.prefetchFaults                       0                       # Number of MMU faults due to prefetch (Count)
system.cpu.mmu.domainFaults                         0                       # Number of MMU faults due to domain restrictions (Count)
system.cpu.mmu.permsFaults                          0                       # Number of MMU faults due to permissions restrictions (Count)
system.cpu.mmu.dtb.readHits                         0                       # Read hits (Count)
system.cpu.mmu.dtb.readMisses                       0                       # Read misses (Count)
system.cpu.mmu.dtb.writeHits                        0                       # Write hits (Count)
system.cpu.mmu.dtb.writeMisses                      0                       # Write misses (Count)
system.cpu.mmu.dtb.inserts                          0                       # Number of times an entry is inserted into the TLB (Count)
system.cpu.mmu.dtb.flushTlb                         0                       # Number of times complete TLB was flushed (Count)
system.cpu.mmu.dtb.flushTlbMva                      0                       # Number of times TLB was flushed by MVA (Count)
system.cpu.mmu.dtb.flushTlbMvaAsid                  0                       # Number of times TLB was flushed by MVA & ASID (Count)
system.cpu.mmu.dtb.flushTlbAsid                     0                       # Number of times TLB was flushed by ASID (Count)
system.cpu.mmu.dtb.flushedEntries                   0                       # Number of entries that have been flushed from TLB (Count)
system.cpu.mmu.dtb.readAccesses                     0                       # Read accesses (Count)
system.cpu.mmu.dtb.writeAccesses                    0                       # Write accesses (Count)
system.cpu.mmu.dtb.hits                             0                       # Total TLB (inst and data) hits (Count)
system.cpu.mmu.dtb.misses                           0                       # Total TLB (inst and data) misses (Count)
system.cpu.mmu.dtb.accesses                         0                       # Total TLB (inst and data) accesses (Count)
system.cpu.mmu.dtb_walker.walks                     0                       # Table walker walks requested (Count)
system.cpu.mmu.dtb_walker.requestOrigin_Requested::Data            0                       # Table walker requests started/completed, data/inst (Count)
system.cpu.mmu.dtb_walker.requestOrigin_Requested::Inst            0                       # Table walker requests started/completed, data/inst (Count)
system.cpu.mmu.dtb_walker.requestOrigin_Requested::total            0                       # Table walker requests started/completed, data/inst (Count)
system.cpu.mmu.dtb_walker.requestOrigin_Completed::Data            0                       # Table walker requests started/completed, data/inst (Count)
system.cpu.mmu.dtb_walker.requestOrigin_Completed::Inst            0                       # Table walker requests started/completed, data/inst (Count)
system.cpu.mmu.dtb_walker.requestOrigin_Completed::total            0                       # Table walker requests started/completed, data/inst (Count)
system.cpu.mmu.dtb_walker.requestOrigin::total            0                       # Table walker requests started/completed, data/inst (Count)
system.cpu.mmu.dtb_walker.power_state.pwrStateResidencyTicks::UNDEFINED 443642286000                       # Cumulative time (in ticks) in various power states (Tick)
system.cpu.mmu.itb.instHits                         0                       # Inst hits (Count)
system.cpu.mmu.itb.instMisses                       0                       # Inst misses (Count)
system.cpu.mmu.itb.inserts                          0                       # Number of times an entry is inserted into the TLB (Count)
system.cpu.mmu.itb.flushTlb                         0                       # Number of times complete TLB was flushed (Count)
system.cpu.mmu.itb.flushTlbMva                      0                       # Number of times TLB was flushed by MVA (Count)
system.cpu.mmu.itb.flushTlbMvaAsid                  0                       # Number of times TLB was flushed by MVA & ASID (Count)
system.cpu.mmu.itb.flushTlbAsid                     0                       # Number of times TLB was flushed by ASID (Count)
system.cpu.mmu.itb.flushedEntries                   0                       # Number of entries that have been flushed from TLB (Count)
system.cpu.mmu.itb.instAccesses                     0                       # Inst accesses (Count)
system.cpu.mmu.itb.hits                             0                       # Total TLB (inst and data) hits (Count)
system.cpu.mmu.itb.misses                           0                       # Total TLB (inst and data) misses (Count)
system.cpu.mmu.itb.accesses                         0                       # Total TLB (inst and data) accesses (Count)
system.cpu.mmu.itb_walker.walks                     0                       # Table walker walks requested (Count)
system.cpu.mmu.itb_walker.requestOrigin_Requested::Data            0                       # Table walker requests started/completed, data/inst (Count)
system.cpu.mmu.itb_walker.requestOrigin_Requested::Inst            0                       # Table walker requests started/completed, data/inst (Count)
system.cpu.mmu.itb_walker.requestOrigin_Requested::total            0                       # Table walker requests started/completed, data/inst (Count)
system.cpu.mmu.itb_walker.requestOrigin_Completed::Data            0                       # Table walker requests started/completed, data/inst (Count)
system.cpu.mmu.itb_walker.requestOrigin_Completed::Inst            0                       # Table walker requests started/completed, data/inst (Count)
system.cpu.mmu.itb_walker.requestOrigin_Completed::total            0                       # Table walker requests started/completed, data/inst (Count)
system.cpu.mmu.itb_walker.requestOrigin::total            0                       # Table walker requests started/completed, data/inst (Count)
system.cpu.mmu.itb_walker.power_state.pwrStateResidencyTicks::UNDEFINED 443642286000                       # Cumulative time (in ticks) in various power states (Tick)
system.cpu.mmu.l2_shared.instHits                   0                       # Inst hits (Count)
system.cpu.mmu.l2_shared.instMisses                 0                       # Inst misses (Count)
system.cpu.mmu.l2_shared.inserts                    0                       # Number of times an entry is inserted into the TLB (Count)
system.cpu.mmu.l2_shared.flushTlb                   0                       # Number of times complete TLB was flushed (Count)
system.cpu.mmu.l2_shared.flushTlbMva                0                       # Number of times TLB was flushed by MVA (Count)
system.cpu.mmu.l2_shared.flushTlbMvaAsid            0                       # Number of times TLB was flushed by MVA & ASID (Count)
system.cpu.mmu.l2_shared.flushTlbAsid               0                       # Number of times TLB was flushed by ASID (Count)
system.cpu.mmu.l2_shared.flushedEntries             0                       # Number of entries that have been flushed from TLB (Count)
system.cpu.mmu.l2_shared.instAccesses               0                       # Inst accesses (Count)
system.cpu.mmu.l2_shared.hits                       0                       # Total TLB (inst and data) hits (Count)
system.cpu.mmu.l2_shared.misses                     0                       # Total TLB (inst and data) misses (Count)
system.cpu.mmu.l2_shared.accesses                   0                       # Total TLB (inst and data) accesses (Count)
system.cpu.mmu.stage2_dtb.readHits                  0                       # Read hits (Count)
system.cpu.mmu.stage2_dtb.readMisses                0                       # Read misses (Count)
system.cpu.mmu.stage2_dtb.writeHits                 0                       # Write hits (Count)
system.cpu.mmu.stage2_dtb.writeMisses               0                       # Write misses (Count)
system.cpu.mmu.stage2_dtb.inserts                   0                       # Number of times an entry is inserted into the TLB (Count)
system.cpu.mmu.stage2_dtb.flushTlb                  0                       # Number of times complete TLB was flushed (Count)
system.cpu.mmu.stage2_dtb.flushTlbMva               0                       # Number of times TLB was flushed by MVA (Count)
system.cpu.mmu.stage2_dtb.flushTlbMvaAsid            0                       # Number of times TLB was flushed by MVA & ASID (Count)
system.cpu.mmu.stage2_dtb.flushTlbAsid              0                       # Number of times TLB was flushed by ASID (Count)
system.cpu.mmu.stage2_dtb.flushedEntries            0                       # Number of entries that have been flushed from TLB (Count)
system.cpu.mmu.stage2_dtb.readAccesses              0                       # Read accesses (Count)
system.cpu.mmu.stage2_dtb.writeAccesses             0                       # Write accesses (Count)
system.cpu.mmu.stage2_dtb.hits                      0                       # Total TLB (inst and data) hits (Count)
system.cpu.mmu.stage2_dtb.misses                    0                       # Total TLB (inst and data) misses (Count)
system.cpu.mmu.stage2_dtb.accesses                  0                       # Total TLB (inst and data) accesses (Count)
system.cpu.mmu.stage2_dtb_walker.walks              0                       # Table walker walks requested (Count)
system.cpu.mmu.stage2_dtb_walker.requestOrigin_Requested::Data            0                       # Table walker requests started/completed, data/inst (Count)
system.cpu.mmu.stage2_dtb_walker.requestOrigin_Requested::Inst            0                       # Table walker requests started/completed, data/inst (Count)
system.cpu.mmu.stage2_dtb_walker.requestOrigin_Requested::total            0                       # Table walker requests started/completed, data/inst (Count)
system.cpu.mmu.stage2_dtb_walker.requestOrigin_Completed::Data            0                       # Table walker requests started/completed, data/inst (Count)
system.cpu.mmu.stage2_dtb_walker.requestOrigin_Completed::Inst            0                       # Table walker requests started/completed, data/inst (Count)
system.cpu.mmu.stage2_dtb_walker.requestOrigin_Completed::total            0                       # Table walker requests started/completed, data/inst (Count)
system.cpu.mmu.stage2_dtb_walker.requestOrigin::total            0                       # Table walker requests started/completed, data/inst (Count)
system.cpu.mmu.stage2_dtb_walker.power_state.pwrStateResidencyTicks::UNDEFINED 443642286000                       # Cumulative time (in ticks) in various power states (Tick)
system.cpu.mmu.stage2_itb.instHits                  0                       # Inst hits (Count)
system.cpu.mmu.stage2_itb.instMisses                0                       # Inst misses (Count)
system.cpu.mmu.stage2_itb.inserts                   0                       # Number of times an entry is inserted into the TLB (Count)
system.cpu.mmu.stage2_itb.flushTlb                  0                       # Number of times complete TLB was flushed (Count)
system.cpu.mmu.stage2_itb.flushTlbMva               0                       # Number of times TLB was flushed by MVA (Count)
system.cpu.mmu.stage2_itb.flushTlbMvaAsid            0                       # Number of times TLB was flushed by MVA & ASID (Count)
system.cpu.mmu.stage2_itb.flushTlbAsid              0                       # Number of times TLB was flushed by ASID (Count)
system.cpu.mmu.stage2_itb.flushedEntries            0                       # Number of entries that have been flushed from TLB (Count)
system.cpu.mmu.stage2_itb.instAccesses              0                       # Inst accesses (Count)
system.cpu.mmu.stage2_itb.hits                      0                       # Total TLB (inst and data) hits (Count)
system.cpu.mmu.stage2_itb.misses                    0                       # Total TLB (inst and data) misses (Count)
system.cpu.mmu.stage2_itb.accesses                  0                       # Total TLB (inst and data) accesses (Count)
system.cpu.mmu.stage2_itb_walker.walks              0                       # Table walker walks requested (Count)
system.cpu.mmu.stage2_itb_walker.requestOrigin_Requested::Data            0                       # Table walker requests started/completed, data/inst (Count)
system.cpu.mmu.stage2_itb_walker.requestOrigin_Requested::Inst            0                       # Table walker requests started/completed, data/inst (Count)
system.cpu.mmu.stage2_itb_walker.requestOrigin_Requested::total            0                       # Table walker requests started/completed, data/inst (Count)
system.cpu.mmu.stage2_itb_walker.requestOrigin_Completed::Data            0                       # Table walker requests started/completed, data/inst (Count)
system.cpu.mmu.stage2_itb_walker.requestOrigin_Completed::Inst            0                       # Table walker requests started/completed, data/inst (Count)
system.cpu.mmu.stage2_itb_walker.requestOrigin_Completed::total            0                       # Table walker requests started/completed, data/inst (Count)
system.cpu.mmu.stage2_itb_walker.requestOrigin::total            0                       # Table walker requests started/completed, data/inst (Count)
system.cpu.mmu.stage2_itb_walker.power_state.pwrStateResidencyTicks::UNDEFINED 443642286000                       # Cumulative time (in ticks) in various power states (Tick)
system.cpu.power_state.pwrStateResidencyTicks::ON 443642286000                       # Cumulative time (in ticks) in various power states (Tick)
system.cpu.thread_0.numInsts                100000000                       # Number of Instructions committed (Count)
system.cpu.thread_0.numOps                  100001797                       # Number of Ops committed (Count)
system.cpu.thread_0.numMemRefs                      0                       # Number of Memory References (Count)
system.cpu.workload.numSyscalls                    16                       # Number of system calls (Count)
system.cpu_clk_domain.clock                       500                       # Clock period in ticks (Tick)
system.cpu_voltage_domain.voltage                   1                       # Voltage in Volts (Volt)
system.l2.demandHits::cpu.inst                     14                       # number of demand (read+write) hits (Count)
system.l2.demandHits::cpu.data                      7                       # number of demand (read+write) hits (Count)
system.l2.demandHits::total                        21                       # number of demand (read+write) hits (Count)
system.l2.overallHits::cpu.inst                    14                       # number of overall hits (Count)
system.l2.overallHits::cpu.data                     7                       # number of overall hits (Count)
system.l2.overallHits::total                       21                       # number of overall hits (Count)
system.l2.demandMisses::cpu.inst                 1571                       # number of demand (read+write) misses (Count)
system.l2.demandMisses::cpu.data              5346340                       # number of demand (read+write) misses (Count)
system.l2.demandMisses::total                 5347911                       # number of demand (read+write) misses (Count)
system.l2.overallMisses::cpu.inst                1571                       # number of overall misses (Count)
system.l2.overallMisses::cpu.data             5346340                       # number of overall misses (Count)
system.l2.overallMisses::total                5347911                       # number of overall misses (Count)
system.l2.demandMissLatency::cpu.inst       116809000                       # number of demand (read+write) miss ticks (Tick)
system.l2.demandMissLatency::cpu.data    400690533000                       # number of demand (read+write) miss ticks (Tick)
system.l2.demandMissLatency::total       400807342000                       # number of demand (read+write) miss ticks (Tick)
system.l2.overallMissLatency::cpu.inst      116809000                       # number of overall miss ticks (Tick)
system.l2.overallMissLatency::cpu.data   400690533000                       # number of overall miss ticks (Tick)
system.l2.overallMissLatency::total      400807342000                       # number of overall miss ticks (Tick)
system.l2.demandAccesses::cpu.inst               1585                       # number of demand (read+write) accesses (Count)
system.l2.demandAccesses::cpu.data            5346347                       # number of demand (read+write) accesses (Count)
system.l2.demandAccesses::total               5347932                       # number of demand (read+write) accesses (Count)
system.l2.overallAccesses::cpu.inst              1585                       # number of overall (read+write) accesses (Count)
system.l2.overallAccesses::cpu.data           5346347                       # number of overall (read+write) accesses (Count)
system.l2.overallAccesses::total              5347932                       # number of overall (read+write) accesses (Count)
system.l2.demandMissRate::cpu.inst           0.991167                       # miss rate for demand accesses (Ratio)
system.l2.demandMissRate::cpu.data           0.999999                       # miss rate for demand accesses (Ratio)
system.l2.demandMissRate::total              0.999996                       # miss rate for demand accesses (Ratio)
system.l2.overallMissRate::cpu.inst          0.991167                       # miss rate for overall accesses (Ratio)
system.l2.overallMissRate::cpu.data          0.999999                       # miss rate for overall accesses (Ratio)
system.l2.overallMissRate::total             0.999996                       # miss rate for overall accesses (Ratio)
system.l2.demandAvgMissLatency::cpu.inst 74353.278167                       # average overall miss latency in ticks ((Tick/Count))
system.l2.demandAvgMissLatency::cpu.data 74946.698676                       # average overall miss latency in ticks ((Tick/Count))
system.l2.demandAvgMissLatency::total    74946.524353                       # average overall miss latency in ticks ((Tick/Count))
system.l2.overallAvgMissLatency::cpu.inst 74353.278167                       # average overall miss latency ((Tick/Count))
system.l2.overallAvgMissLatency::cpu.data 74946.698676                       # average overall miss latency ((Tick/Count))
system.l2.overallAvgMissLatency::total   74946.524353                       # average overall miss latency ((Tick/Count))
system.l2.blockedCycles::no_mshrs                   0                       # number of cycles access was blocked (Cycle)
system.l2.blockedCycles::no_targets                 0                       # number of cycles access was blocked (Cycle)
system.l2.blockedCauses::no_mshrs                   0                       # number of times access was blocked (Count)
system.l2.blockedCauses::no_targets                 0                       # number of times access was blocked (Count)
system.l2.avgBlocked::no_mshrs                    nan                       # average number of cycles each access was blocked ((Cycle/Count))
system.l2.avgBlocked::no_targets                  nan                       # average number of cycles each access was blocked ((Cycle/Count))
system.l2.writebacks::writebacks              5215297                       # number of writebacks (Count)
system.l2.writebacks::total                   5215297                       # number of writebacks (Count)
system.l2.demandMshrMisses::cpu.inst             1571                       # number of demand (read+write) MSHR misses (Count)
system.l2.demandMshrMisses::cpu.data          5346340                       # number of demand (read+write) MSHR misses (Count)
system.l2.demandMshrMisses::total             5347911                       # number of demand (read+write) MSHR misses (Count)
system.l2.overallMshrMisses::cpu.inst            1571                       # number of overall MSHR misses (Count)
system.l2.overallMshrMisses::cpu.data         5346340                       # number of overall MSHR misses (Count)
system.l2.overallMshrMisses::total            5347911                       # number of overall MSHR misses (Count)
system.l2.demandMshrMissLatency::cpu.inst    101099000                       # number of demand (read+write) MSHR miss ticks (Tick)
system.l2.demandMshrMissLatency::cpu.data 347227133000                       # number of demand (read+write) MSHR miss ticks (Tick)
system.l2.demandMshrMissLatency::total   347328232000                       # number of demand (read+write) MSHR miss ticks (Tick)
system.l2.overallMshrMissLatency::cpu.inst    101099000                       # number of overall MSHR miss ticks (Tick)
system.l2.overallMshrMissLatency::cpu.data 347227133000                       # number of overall MSHR miss ticks (Tick)
system.l2.overallMshrMissLatency::total  347328232000                       # number of overall MSHR miss ticks (Tick)
system.l2.demandMshrMissRate::cpu.inst       0.991167                       # mshr miss ratio for demand accesses (Ratio)
system.l2.demandMshrMissRate::cpu.data       0.999999                       # mshr miss ratio for demand accesses (Ratio)
system.l2.demandMshrMissRate::total          0.999996                       # mshr miss ratio for demand accesses (Ratio)
system.l2.overallMshrMissRate::cpu.inst      0.991167                       # mshr miss ratio for overall accesses (Ratio)
system.l2.overallMshrMissRate::cpu.data      0.999999                       # mshr miss ratio for overall accesses (Ratio)
system.l2.overallMshrMissRate::total         0.999996                       # mshr miss ratio for overall accesses (Ratio)
system.l2.demandAvgMshrMissLatency::cpu.inst 64353.278167                       # average overall mshr miss latency ((Tick/Count))
system.l2.demandAvgMshrMissLatency::cpu.data 64946.698676                       # average overall mshr miss latency ((Tick/Count))
system.l2.demandAvgMshrMissLatency::total 64946.524353                       # average overall mshr miss latency ((Tick/Count))
system.l2.overallAvgMshrMissLatency::cpu.inst 64353.278167                       # average overall mshr miss latency ((Tick/Count))
system.l2.overallAvgMshrMissLatency::cpu.data 64946.698676                       # average overall mshr miss latency ((Tick/Count))
system.l2.overallAvgMshrMissLatency::total 64946.524353                       # average overall mshr miss latency ((Tick/Count))
system.l2.replacements                        5217095                       # number of replacements (Count)
system.l2.InvalidateReq.hits::cpu.data              3                       # number of InvalidateReq hits (Count)
system.l2.InvalidateReq.hits::total                 3                       # number of InvalidateReq hits (Count)
system.l2.InvalidateReq.misses::cpu.data          258                       # number of InvalidateReq misses (Count)
system.l2.InvalidateReq.misses::total             258                       # number of InvalidateReq misses (Count)
system.l2.InvalidateReq.accesses::cpu.data          261                       # number of InvalidateReq accesses(hits+misses) (Count)
system.l2.InvalidateReq.accesses::total           261                       # number of InvalidateReq accesses(hits+misses) (Count)
system.l2.InvalidateReq.missRate::cpu.data     0.988506                       # miss rate for InvalidateReq accesses (Ratio)
system.l2.InvalidateReq.missRate::total      0.988506                       # miss rate for InvalidateReq accesses (Ratio)
system.l2.InvalidateReq.mshrMisses::cpu.data          258                       # number of InvalidateReq MSHR misses (Count)
system.l2.InvalidateReq.mshrMisses::total          258                       # number of InvalidateReq MSHR misses (Count)
system.l2.InvalidateReq.mshrMissLatency::cpu.data      4906000                       # number of InvalidateReq MSHR miss ticks (Tick)
system.l2.InvalidateReq.mshrMissLatency::total      4906000                       # number of InvalidateReq MSHR miss ticks (Tick)
system.l2.InvalidateReq.mshrMissRate::cpu.data     0.988506                       # mshr miss rate for InvalidateReq accesses (Ratio)
system.l2.InvalidateReq.mshrMissRate::total     0.988506                       # mshr miss rate for InvalidateReq accesses (Ratio)
system.l2.InvalidateReq.avgMshrMissLatency::cpu.data 19015.503876                       # average InvalidateReq mshr miss latency ((Tick/Count))
system.l2.InvalidateReq.avgMshrMissLatency::total 19015.503876                       # average InvalidateReq mshr miss latency ((Tick/Count))
system.l2.ReadCleanReq.hits::cpu.inst              14                       # number of ReadCleanReq hits (Count)
system.l2.ReadCleanReq.hits::total                 14                       # number of ReadCleanReq hits (Count)
system.l2.ReadCleanReq.misses::cpu.inst          1571                       # number of ReadCleanReq misses (Count)
system.l2.ReadCleanReq.misses::total             1571                       # number of ReadCleanReq misses (Count)
system.l2.ReadCleanReq.missLatency::cpu.inst    116809000                       # number of ReadCleanReq miss ticks (Tick)
system.l2.ReadCleanReq.missLatency::total    116809000                       # number of ReadCleanReq miss ticks (Tick)
system.l2.ReadCleanReq.accesses::cpu.inst         1585                       # number of ReadCleanReq accesses(hits+misses) (Count)
system.l2.ReadCleanReq.accesses::total           1585                       # number of ReadCleanReq accesses(hits+misses) (Count)
system.l2.ReadCleanReq.missRate::cpu.inst     0.991167                       # miss rate for ReadCleanReq accesses (Ratio)
system.l2.ReadCleanReq.missRate::total       0.991167                       # miss rate for ReadCleanReq accesses (Ratio)
system.l2.ReadCleanReq.avgMissLatency::cpu.inst 74353.278167                       # average ReadCleanReq miss latency ((Tick/Count))
system.l2.ReadCleanReq.avgMissLatency::total 74353.278167                       # average ReadCleanReq miss latency ((Tick/Count))
system.l2.ReadCleanReq.mshrMisses::cpu.inst         1571                       # number of ReadCleanReq MSHR misses (Count)
system.l2.ReadCleanReq.mshrMisses::total         1571                       # number of ReadCleanReq MSHR misses (Count)
system.l2.ReadCleanReq.mshrMissLatency::cpu.inst    101099000                       # number of ReadCleanReq MSHR miss ticks (Tick)
system.l2.ReadCleanReq.mshrMissLatency::total    101099000                       # number of ReadCleanReq MSHR miss ticks (Tick)
system.l2.ReadCleanReq.mshrMissRate::cpu.inst     0.991167                       # mshr miss rate for ReadCleanReq accesses (Ratio)
system.l2.ReadCleanReq.mshrMissRate::total     0.991167                       # mshr miss rate for ReadCleanReq accesses (Ratio)
system.l2.ReadCleanReq.avgMshrMissLatency::cpu.inst 64353.278167                       # average ReadCleanReq mshr miss latency ((Tick/Count))
system.l2.ReadCleanReq.avgMshrMissLatency::total 64353.278167                       # average ReadCleanReq mshr miss latency ((Tick/Count))
system.l2.ReadExReq.hits::cpu.data                  2                       # number of ReadExReq hits (Count)
system.l2.ReadExReq.hits::total                     2                       # number of ReadExReq hits (Count)
system.l2.ReadExReq.misses::cpu.data          5346085                       # number of ReadExReq misses (Count)
system.l2.ReadExReq.misses::total             5346085                       # number of ReadExReq misses (Count)
system.l2.ReadExReq.missLatency::cpu.data 400670134500                       # number of ReadExReq miss ticks (Tick)
system.l2.ReadExReq.missLatency::total   400670134500                       # number of ReadExReq miss ticks (Tick)
system.l2.ReadExReq.accesses::cpu.data        5346087                       # number of ReadExReq accesses(hits+misses) (Count)
system.l2.ReadExReq.accesses::total           5346087                       # number of ReadExReq accesses(hits+misses) (Count)
system.l2.ReadExReq.missRate::cpu.data       1.000000                       # miss rate for ReadExReq accesses (Ratio)
system.l2.ReadExReq.missRate::total          1.000000                       # miss rate for ReadExReq accesses (Ratio)
system.l2.ReadExReq.avgMissLatency::cpu.data 74946.457922                       # average ReadExReq miss latency ((Tick/Count))
system.l2.ReadExReq.avgMissLatency::total 74946.457922                       # average ReadExReq miss latency ((Tick/Count))
system.l2.ReadExReq.mshrMisses::cpu.data      5346085                       # number of ReadExReq MSHR misses (Count)
system.l2.ReadExReq.mshrMisses::total         5346085                       # number of ReadExReq MSHR misses (Count)
system.l2.ReadExReq.mshrMissLatency::cpu.data 347209284500                       # number of ReadExReq MSHR miss ticks (Tick)
system.l2.ReadExReq.mshrMissLatency::total 347209284500                       # number of ReadExReq MSHR miss ticks (Tick)
system.l2.ReadExReq.mshrMissRate::cpu.data     1.000000                       # mshr miss rate for ReadExReq accesses (Ratio)
system.l2.ReadExReq.mshrMissRate::total      1.000000                       # mshr miss rate for ReadExReq accesses (Ratio)
system.l2.ReadExReq.avgMshrMissLatency::cpu.data 64946.457922                       # average ReadExReq mshr miss latency ((Tick/Count))
system.l2.ReadExReq.avgMshrMissLatency::total 64946.457922                       # average ReadExReq mshr miss latency ((Tick/Count))
system.l2.ReadSharedReq.hits::cpu.data              5                       # number of ReadSharedReq hits (Count)
system.l2.ReadSharedReq.hits::total                 5                       # number of ReadSharedReq hits (Count)
system.l2.ReadSharedReq.misses::cpu.data          255                       # number of ReadSharedReq misses (Count)
system.l2.ReadSharedReq.misses::total             255                       # number of ReadSharedReq misses (Count)
system.l2.ReadSharedReq.missLatency::cpu.data     20398500                       # number of ReadSharedReq miss ticks (Tick)
system.l2.ReadSharedReq.missLatency::total     20398500                       # number of ReadSharedReq miss ticks (Tick)
system.l2.ReadSharedReq.accesses::cpu.data          260                       # number of ReadSharedReq accesses(hits+misses) (Count)
system.l2.ReadSharedReq.accesses::total           260                       # number of ReadSharedReq accesses(hits+misses) (Count)
system.l2.ReadSharedReq.missRate::cpu.data     0.980769                       # miss rate for ReadSharedReq accesses (Ratio)
system.l2.ReadSharedReq.missRate::total      0.980769                       # miss rate for ReadSharedReq accesses (Ratio)
system.l2.ReadSharedReq.avgMissLatency::cpu.data 79994.117647                       # average ReadSharedReq miss latency ((Tick/Count))
system.l2.ReadSharedReq.avgMissLatency::total 79994.117647                       # average ReadSharedReq miss latency ((Tick/Count))
system.l2.ReadSharedReq.mshrMisses::cpu.data          255                       # number of ReadSharedReq MSHR misses (Count)
system.l2.ReadSharedReq.mshrMisses::total          255                       # number of ReadSharedReq MSHR misses (Count)
system.l2.ReadSharedReq.mshrMissLatency::cpu.data     17848500                       # number of ReadSharedReq MSHR miss ticks (Tick)
system.l2.ReadSharedReq.mshrMissLatency::total     17848500                       # number of ReadSharedReq MSHR miss ticks (Tick)
system.l2.ReadSharedReq.mshrMissRate::cpu.data     0.980769                       # mshr miss rate for ReadSharedReq accesses (Ratio)
system.l2.ReadSharedReq.mshrMissRate::total     0.980769                       # mshr miss rate for ReadSharedReq accesses (Ratio)
system.l2.ReadSharedReq.avgMshrMissLatency::cpu.data 69994.117647                       # average ReadSharedReq mshr miss latency ((Tick/Count))
system.l2.ReadSharedReq.avgMshrMissLatency::total 69994.117647                       # average ReadSharedReq mshr miss latency ((Tick/Count))
system.l2.WritebackClean.hits::writebacks          227                       # number of WritebackClean hits (Count)
system.l2.WritebackClean.hits::total              227                       # number of WritebackClean hits (Count)
system.l2.WritebackClean.accesses::writebacks          227                       # number of WritebackClean accesses(hits+misses) (Count)
system.l2.WritebackClean.accesses::total          227                       # number of WritebackClean accesses(hits+misses) (Count)
system.l2.WritebackDirty.hits::writebacks      5342284                       # number of WritebackDirty hits (Count)
system.l2.WritebackDirty.hits::total          5342284                       # number of WritebackDirty hits (Count)
system.l2.WritebackDirty.accesses::writebacks      5342284                       # number of WritebackDirty accesses(hits+misses) (Count)
system.l2.WritebackDirty.accesses::total      5342284                       # number of WritebackDirty accesses(hits+misses) (Count)
system.l2.power_state.pwrStateResidencyTicks::UNDEFINED 443642286000                       # Cumulative time (in ticks) in various power states (Tick)
system.l2.tags.tagsInUse                 129517.767709                       # Average ticks per tags in use ((Tick/Count))
system.l2.tags.totalRefs                     10690673                       # Total number of references to valid blocks. (Count)
system.l2.tags.sampledRefs                    5348170                       # Sample count of references to valid blocks. (Count)
system.l2.tags.avgRefs                       1.998940                       # Average number of references to valid blocks. ((Count/Count))
system.l2.tags.warmupTick                       77000                       # The tick when the warmup percentage was hit. (Tick)
system.l2.tags.occupancies::writebacks       5.908784                       # Average occupied blocks per tick, per requestor ((Count/Tick))
system.l2.tags.occupancies::cpu.inst        35.337986                       # Average occupied blocks per tick, per requestor ((Count/Tick))
system.l2.tags.occupancies::cpu.data     129476.520938                       # Average occupied blocks per tick, per requestor ((Count/Tick))
system.l2.tags.avgOccs::writebacks           0.000045                       # Average percentage of cache occupancy ((Ratio/Tick))
system.l2.tags.avgOccs::cpu.inst             0.000270                       # Average percentage of cache occupancy ((Ratio/Tick))
system.l2.tags.avgOccs::cpu.data             0.987827                       # Average percentage of cache occupancy ((Ratio/Tick))
system.l2.tags.avgOccs::total                0.988142                       # Average percentage of cache occupancy ((Ratio/Tick))
system.l2.tags.occupanciesTaskId::1024         131072                       # Occupied blocks per task id (Count)
system.l2.tags.ageTaskId_1024::0                  124                       # Occupied blocks per task id, per block age (Count)
system.l2.tags.ageTaskId_1024::1                 1082                       # Occupied blocks per task id, per block age (Count)
system.l2.tags.ageTaskId_1024::2                10841                       # Occupied blocks per task id, per block age (Count)
system.l2.tags.ageTaskId_1024::3               108417                       # Occupied blocks per task id, per block age (Count)
system.l2.tags.ageTaskId_1024::4                10608                       # Occupied blocks per task id, per block age (Count)
system.l2.tags.ratioOccsTaskId::1024                1                       # Ratio of occupied blocks and all blocks, per task id (Ratio)
system.l2.tags.tagAccesses                   90875618                       # Number of tag accesses (Count)
system.l2.tags.dataAccesses                  90875618                       # Number of data accesses (Count)
system.l2.tags.power_state.pwrStateResidencyTicks::UNDEFINED 443642286000                       # Cumulative time (in ticks) in various power states (Tick)
system.mem_ctrls.avgPriority_writebacks::samples   1303856.00                       # Average QoS priority value for accepted requests (Count)
system.mem_ctrls.avgPriority_cpu.inst::samples      1571.00                       # Average QoS priority value for accepted requests (Count)
system.mem_ctrls.avgPriority_cpu.data::samples   5346340.00                       # Average QoS priority value for accepted requests (Count)
system.mem_ctrls.priorityMinLatency      0.000000018750                       # per QoS priority minimum request to response latency (Second)
system.mem_ctrls.priorityMaxLatency      0.000288420500                       # per QoS priority maximum request to response latency (Second)
[...]
system.mem_ctrls.dram.perBankWrBursts::12        81541                       # Per bank write bursts (Count)
system.mem_ctrls.dram.perBankWrBursts::13        81456                       # Per bank write bursts (Count)
system.mem_ctrls.dram.perBankWrBursts::14        81417                       # Per bank write bursts (Count)
system.mem_ctrls.dram.perBankWrBursts::15        81408                       # Per bank write bursts (Count)
system.mem_ctrls.dram.totQLat             29035763000                       # Total ticks spent queuing (Tick)
system.mem_ctrls.dram.totBusLat           26739555000                       # Total ticks spent in databus transfers (Tick)
system.mem_ctrls.dram.totMemAccLat       129309094250                       # Total ticks spent from burst creation until serviced by the DRAM (Tick)
system.mem_ctrls.dram.avgQLat                 5429.37                       # Average queueing delay per DRAM burst ((Tick/Count))
system.mem_ctrls.dram.avgBusLat               5000.00                       # Average bus latency per DRAM burst ((Tick/Count))
system.mem_ctrls.dram.avgMemAccLat           24179.37                       # Average memory access latency per DRAM burst ((Tick/Count))
system.mem_ctrls.dram.readRowHits             4955009                       # Number of row buffer hits during reads (Count)
system.mem_ctrls.dram.writeRowHits            1211409                       # Number of row buffer hits during writes (Count)
system.mem_ctrls.dram.readRowHitRate            92.65                       # Row buffer hit rate for reads (Ratio)
system.mem_ctrls.dram.writeRowHitRate           92.91                       # Row buffer hit rate for writes (Ratio)
system.mem_ctrls.dram.bytesPerActivate::samples       485316                       # Bytes accessed per row activation (Byte)
system.mem_ctrls.dram.bytesPerActivate::mean   877.181350                       # Bytes accessed per row activation (Byte)
system.mem_ctrls.dram.bytesPerActivate::gmean   764.640101                       # Bytes accessed per row activation (Byte)
system.mem_ctrls.dram.bytesPerActivate::stdev   291.274370                       # Bytes accessed per row activation (Byte)
system.mem_ctrls.dram.bytesPerActivate::0-127        19402      4.00%      4.00% # Bytes accessed per row activation (Byte)
system.mem_ctrls.dram.bytesPerActivate::128-255        22348      4.60%      8.60% # Bytes accessed per row activation (Byte)
system.mem_ctrls.dram.bytesPerActivate::256-383        13982      2.88%     11.48% # Bytes accessed per row activation (Byte)
system.mem_ctrls.dram.bytesPerActivate::384-511        12324      2.54%     14.02% # Bytes accessed per row activation (Byte)
system.mem_ctrls.dram.bytesPerActivate::512-639        12313      2.54%     16.56% # Bytes accessed per row activation (Byte)
system.mem_ctrls.dram.bytesPerActivate::640-767        13062      2.69%     19.25% # Bytes accessed per row activation (Byte)
system.mem_ctrls.dram.bytesPerActivate::768-895        13618      2.81%     22.06% # Bytes accessed per row activation (Byte)
system.mem_ctrls.dram.bytesPerActivate::896-1023        27933      5.76%     27.81% # Bytes accessed per row activation (Byte)
system.mem_ctrls.dram.bytesPerActivate::1024-1151       350334     72.19%    100.00% # Bytes accessed per row activation (Byte)
system.mem_ctrls.dram.bytesPerActivate::total       485316                       # Bytes accessed per row activation (Byte)
system.mem_ctrls.dram.bytesRead             342266304                       # Total bytes read (Byte)
system.mem_ctrls.dram.bytesWritten           83444736                       # Total bytes written (Byte)
system.mem_ctrls.dram.avgRdBW              771.491616                       # Average DRAM read bandwidth in MiBytes/s ((Byte/Second))
system.mem_ctrls.dram.avgWrBW              188.090132                       # Average DRAM write bandwidth in MiBytes/s ((Byte/Second))
system.mem_ctrls.dram.peakBW                 12800.00                       # Theoretical peak bandwidth in MiByte/s ((Byte/Second))
system.mem_ctrls.dram.busUtil                    7.50                       # Data bus utilization in percentage (Ratio)
system.mem_ctrls.dram.busUtilRead                6.03                       # Data bus utilization in percentage for reads (Ratio)
system.mem_ctrls.dram.busUtilWrite               1.47                       # Data bus utilization in percentage for writes (Ratio)
system.mem_ctrls.dram.pageHitRate               92.70                       # Row buffer hit rate, read and write combined (Ratio)
system.mem_ctrls.dram.power_state.pwrStateResidencyTicks::UNDEFINED 443642286000                       # Cumulative time (in ticks) in various power states (Tick)
system.mem_ctrls.dram.rank0.actEnergy      1732770900                       # Energy for activate commands per rank (pJ) (Joule)
system.mem_ctrls.dram.rank0.preEnergy       920989575                       # Energy for precharge commands per rank (pJ) (Joule)
system.mem_ctrls.dram.rank0.readEnergy    19091610300                       # Energy for read commands per rank (pJ) (Joule)
system.mem_ctrls.dram.rank0.writeEnergy    3402698760                       # Energy for write commands per rank (pJ) (Joule)
system.mem_ctrls.dram.rank0.refreshEnergy 35020343280.000008                       # Energy for refresh commands per rank (pJ) (Joule)
system.mem_ctrls.dram.rank0.actBackEnergy 102184949370                       # Energy for active background per rank (pJ) (Joule)
system.mem_ctrls.dram.rank0.preBackEnergy  84308154240                       # Energy for precharge background per rank (pJ) (Joule)
system.mem_ctrls.dram.rank0.actPowerDownEnergy            0                       # Energy for active power-down per rank (pJ) (Joule)
system.mem_ctrls.dram.rank0.prePowerDownEnergy            0                       # Energy for precharge power-down per rank (pJ) (Joule)
system.mem_ctrls.dram.rank0.selfRefreshEnergy            0                       # Energy for self refresh per rank (pJ) (Joule)
system.mem_ctrls.dram.rank0.totalEnergy  246661516425                       # Total energy per rank (pJ) (Joule)
system.mem_ctrls.dram.rank0.averagePower   555.991898                       # Core power per rank (mW) (Watt)
system.mem_ctrls.dram.rank0.totalIdleTime            0                       # Total Idle time Per DRAM Rank (Tick)
system.mem_ctrls.dram.rank0.pwrStateTime::IDLE 216032197750                       # Time in different power states (Tick)
system.mem_ctrls.dram.rank0.pwrStateTime::REF  14814020000                       # Time in different power states (Tick)
system.mem_ctrls.dram.rank0.pwrStateTime::SREF            0                       # Time in different power states (Tick)
system.mem_ctrls.dram.rank0.pwrStateTime::PRE_PDN            0                       # Time in different power states (Tick)
system.mem_ctrls.dram.rank0.pwrStateTime::ACT 212796068250                       # Time in different power states (Tick)
system.mem_ctrls.dram.rank0.pwrStateTime::ACT_PDN            0                       # Time in different power states (Tick)
system.mem_ctrls.dram.rank1.actEnergy      1732392480                       # Energy for activate commands per rank (pJ) (Joule)
system.mem_ctrls.dram.rank1.preEnergy       920784645                       # Energy for precharge commands per rank (pJ) (Joule)
system.mem_ctrls.dram.rank1.readEnergy    19092474240                       # Energy for read commands per rank (pJ) (Joule)
system.mem_ctrls.dram.rank1.writeEnergy    3403262520                       # Energy for write commands per rank (pJ) (Joule)
system.mem_ctrls.dram.rank1.refreshEnergy 35020343280.000008                       # Energy for refresh commands per rank (pJ) (Joule)
system.mem_ctrls.dram.rank1.actBackEnergy 102195921870                       # Energy for active background per rank (pJ) (Joule)
system.mem_ctrls.dram.rank1.preBackEnergy  84298914240                       # Energy for precharge background per rank (pJ) (Joule)
system.mem_ctrls.dram.rank1.actPowerDownEnergy            0                       # Energy for active power-down per rank (pJ) (Joule)
system.mem_ctrls.dram.rank1.prePowerDownEnergy            0                       # Energy for precharge power-down per rank (pJ) (Joule)
system.mem_ctrls.dram.rank1.selfRefreshEnergy            0                       # Energy for self refresh per rank (pJ) (Joule)
system.mem_ctrls.dram.rank1.totalEnergy  246664093275                       # Total energy per rank (pJ) (Joule)
system.mem_ctrls.dram.rank1.averagePower   555.997706                       # Core power per rank (mW) (Watt)
system.mem_ctrls.dram.rank1.totalIdleTime            0                       # Total Idle time Per DRAM Rank (Tick)
system.mem_ctrls.dram.rank1.pwrStateTime::IDLE 216008523500                       # Time in different power states (Tick)
system.mem_ctrls.dram.rank1.pwrStateTime::REF  14814020000                       # Time in different power states (Tick)
system.mem_ctrls.dram.rank1.pwrStateTime::SREF            0                       # Time in different power states (Tick)
system.mem_ctrls.dram.rank1.pwrStateTime::PRE_PDN            0                       # Time in different power states (Tick)
system.mem_ctrls.dram.rank1.pwrStateTime::ACT 212819742500                       # Time in different power states (Tick)
system.mem_ctrls.dram.rank1.pwrStateTime::ACT_PDN            0                       # Time in different power states (Tick)
system.mem_ctrls.power_state.pwrStateResidencyTicks::UNDEFINED 443642286000                       # Cumulative time (in ticks) in various power states (Tick)
system.membus.transDist::ReadResp                1826                       # Transaction distribution (Count)
system.membus.transDist::WritebackDirty       5215297                       # Transaction distribution (Count)
system.membus.transDist::CleanEvict               441                       # Transaction distribution (Count)
system.membus.transDist::ReadExReq            5346085                       # Transaction distribution (Count)
system.membus.transDist::ReadExResp           5346085                       # Transaction distribution (Count)
system.membus.transDist::ReadSharedReq           1826                       # Transaction distribution (Count)
system.membus.transDist::InvalidateReq            258                       # Transaction distribution (Count)
system.membus.pktCount_system.l2.mem_side_port::system.mem_ctrls.port     15911818                       # Packet count per connected requestor and responder (Count)
system.membus.pktCount::total                15911818                       # Packet count per connected requestor and responder (Count)
system.membus.pktSize_system.l2.mem_side_port::system.mem_ctrls.port    169011328                       # Cumulative packet size per connected requestor and responder (Byte)
system.membus.pktSize::total                169011328                       # Cumulative packet size per connected requestor and responder (Byte)
system.membus.snoops                                0                       # Total snoops (Count)
system.membus.snoopTraffic                          0                       # Total snoop traffic (Byte)
system.membus.snoopFanout::samples            5348169                       # Request fanout histogram (Count)
system.membus.snoopFanout::mean                     0                       # Request fanout histogram (Count)
system.membus.snoopFanout::stdev                    0                       # Request fanout histogram (Count)
system.membus.snoopFanout::underflows               0      0.00%      0.00% # Request fanout histogram (Count)
system.membus.snoopFanout::0                  5348169    100.00%    100.00% # Request fanout histogram (Count)
system.membus.snoopFanout::1                        0      0.00%    100.00% # Request fanout histogram (Count)
system.membus.snoopFanout::overflows                0      0.00%    100.00% # Request fanout histogram (Count)
system.membus.snoopFanout::min_value                0                       # Request fanout histogram (Count)
system.membus.snoopFanout::max_value                0                       # Request fanout histogram (Count)
system.membus.snoopFanout::total              5348169                       # Request fanout histogram (Count)
system.membus.power_state.pwrStateResidencyTicks::UNDEFINED 443642286000                       # Cumulative time (in ticks) in various power states (Tick)
system.membus.reqLayer0.occupancy         15785738500                       # Layer occupancy (ticks) (Tick)
system.membus.reqLayer0.utilization               0.0                       # Layer utilization (Ratio)
system.membus.respLayer1.occupancy        12118050750                       # Layer occupancy (ticks) (Tick)
system.membus.respLayer1.utilization              0.0                       # Layer utilization (Ratio)
system.membus.snoop_filter.totRequests       10563907                       # Total number of requests made to the snoop filter. (Count)
system.membus.snoop_filter.hitSingleRequests      5215738                       # Number of requests hitting in the snoop filter with a single holder of the requested data. (Count)
system.membus.snoop_filter.hitMultiRequests            0                       # Number of requests hitting in the snoop filter with multiple (>1) holders of the requested data. (Count)
system.membus.snoop_filter.totSnoops                0                       # Total number of snoops made to the snoop filter. (Count)
system.membus.snoop_filter.hitSingleSnoops            0                       # Number of snoops hitting in the snoop filter with a single holder of the requested data. (Count)
system.membus.snoop_filter.hitMultiSnoops            0                       # Number of snoops hitting in the snoop filter with multiple (>1) holders of the requested data. (Count)
system.tol2bus.transDist::ReadResp               1845                       # Transaction distribution (Count)
system.tol2bus.transDist::WritebackDirty     10557581                       # Transaction distribution (Count)
system.tol2bus.transDist::WritebackClean          229                       # Transaction distribution (Count)
system.tol2bus.transDist::CleanEvict             2026                       # Transaction distribution (Count)
system.tol2bus.transDist::ReadExReq           5346087                       # Transaction distribution (Count)
system.tol2bus.transDist::ReadExResp          5346087                       # Transaction distribution (Count)
system.tol2bus.transDist::ReadCleanReq           1585                       # Transaction distribution (Count)
system.tol2bus.transDist::ReadSharedReq           260                       # Transaction distribution (Count)
system.tol2bus.transDist::InvalidateReq           261                       # Transaction distribution (Count)
system.tol2bus.transDist::InvalidateResp          261                       # Transaction distribution (Count)
system.tol2bus.pktCount_system.cpu.icache.mem_side_port::system.l2.cpu_side_port         3399                       # Packet count per connected requestor and responder (Count)
system.tol2bus.pktCount_system.cpu.dcache.mem_side_port::system.l2.cpu_side_port     16035728                       # Packet count per connected requestor and responder (Count)
system.tol2bus.pktCount::total               16039127                       # Packet count per connected requestor and responder (Count)
system.tol2bus.pktSize_system.cpu.icache.mem_side_port::system.l2.cpu_side_port        29024                       # Cumulative packet size per connected requestor and responder (Byte)
system.tol2bus.pktSize_system.cpu.dcache.mem_side_port::system.l2.cpu_side_port    171018096                       # Cumulative packet size per connected requestor and responder (Byte)
system.tol2bus.pktSize::total               171047120                       # Cumulative packet size per connected requestor and responder (Byte)
system.tol2bus.snoops                         5217095                       # Total snoops (Count)
system.tol2bus.snoopTraffic                  83444752                       # Total snoop traffic (Byte)
system.tol2bus.snoopFanout::samples          10565288                       # Request fanout histogram (Count)
system.tol2bus.snoopFanout::mean             0.000129                       # Request fanout histogram (Count)
system.tol2bus.snoopFanout::stdev            0.011345                       # Request fanout histogram (Count)
system.tol2bus.snoopFanout::underflows              0      0.00%      0.00% # Request fanout histogram (Count)
system.tol2bus.snoopFanout::0                10563928     99.99%     99.99% # Request fanout histogram (Count)
system.tol2bus.snoopFanout::1                    1360      0.01%    100.00% # Request fanout histogram (Count)
system.tol2bus.snoopFanout::2                       0      0.00%    100.00% # Request fanout histogram (Count)
system.tol2bus.snoopFanout::overflows               0      0.00%    100.00% # Request fanout histogram (Count)
system.tol2bus.snoopFanout::min_value               0                       # Request fanout histogram (Count)
system.tol2bus.snoopFanout::max_value               1                       # Request fanout histogram (Count)
system.tol2bus.snoopFanout::total            10565288                       # Request fanout histogram (Count)
system.tol2bus.power_state.pwrStateResidencyTicks::UNDEFINED 443642286000                       # Cumulative time (in ticks) in various power states (Tick)
system.tol2bus.reqLayer0.occupancy         8016723500                       # Layer occupancy (ticks) (Tick)
system.tol2bus.reqLayer0.utilization              0.0                       # Layer utilization (Ratio)
system.tol2bus.respLayer0.occupancy           1585000                       # Layer occupancy (ticks) (Tick)
system.tol2bus.respLayer0.utilization             0.0                       # Layer utilization (Ratio)
system.tol2bus.respLayer1.occupancy        5346477500                       # Layer occupancy (ticks) (Tick)
system.tol2bus.respLayer1.utilization             0.0                       # Layer utilization (Ratio)
system.tol2bus.snoop_filter.totRequests      10690934                       # Total number of requests made to the snoop filter. (Count)
system.tol2bus.snoop_filter.hitSingleRequests      5342741                       # Number of requests hitting in the snoop filter with a single holder of the requested data. (Count)
system.tol2bus.snoop_filter.hitMultiRequests            3                       # Number of requests hitting in the snoop filter with multiple (>1) holders of the requested data. (Count)
system.tol2bus.snoop_filter.totSnoops            1357                       # Total number of snoops made to the snoop filter. (Count)
system.tol2bus.snoop_filter.hitSingleSnoops         1357                       # Number of snoops hitting in the snoop filter with a single holder of the requested data. (Count)
system.tol2bus.snoop_filter.hitMultiSnoops            0                       # Number of snoops hitting in the snoop filter with multiple (>1) holders of the requested data. (Count)
system.voltage_domain.voltage                       1                       # Voltage in Volts (Volt)
system.workload.inst.arm                            0                       # number of arm instructions executed (Count)
system.workload.inst.quiesce                        0                       # number of quiesce instructions executed (Count)
system.cpu.idleCycles                       752868166                       # Total number of cycles that the object has spent stopped (Unspecified)
system.cpu.tickCycles                       134416406                       # Number of cycles that the object actually ticked (Unspecified)

---------- End Simulation Statistics   ----------
