
---------- Begin Simulation Statistics ----------
simSeconds                                   0.081340                       # Number of seconds simulated (Second)
simTicks                                  81339651000                       # Number of ticks simulated (Tick)
finalTick                                 81339651000                       # Number of ticks from beginning of simulation (restored from checkpoints and never reset) (Tick)
simFreq                                  1000000000000                       # The number of ticks per simulated second ((Tick/Second))
hostSeconds                                    195.13                       # Real time elapsed on the host (Second)
hostTickRate                                416858538                       # The number of ticks simulated per host second (ticks/s) ((Tick/Second))
hostMemory                                     687944                       # Number of bytes of host memory used (Byte)
simInsts                                    100000000                       # Number of instructions simulated (Count)
simOps                                      100001797                       # Number of ops (including micro ops) simulated (Count)
hostInstRate                                   512491                       # Simulator instruction rate (inst/s) ((Count/Second))
hostOpRate                                     512500                       # Simulator op (including micro ops) rate (op/s) ((Count/Second))
system.clk_domain.clock                          1000                       # Clock period in ticks (Tick)
system.cpu.numCycles                        162679302                       # Number of cpu cycles simulated (Cycle)
system.cpu.numWorkItemsStarted                      0                       # Number of work items this cpu started (Count)
system.cpu.numWorkItemsCompleted                    0                       # Number of work items this cpu completed (Count)
system.cpu.numInsts                         100000000                       # Number of instructions committed (Count)
system.cpu.numOps                           100001797                       # Number of ops (including micro ops) committed (Count)
system.cpu.numDiscardedOps                      23001                       # Number of ops (including micro ops) which were discarded before commit (Count)
system.cpu.numFetchSuspends                         0                       # Number of times Execute suspended instruction fetching (Count)
system.cpu.cpi                               1.626793                       # CPI: cycles per instruction ((Cycle/Count))
system.cpu.ipc                               0.614706                       # IPC: instructions per cycle ((Count/Cycle))
system.cpu.committedInstType_0::No_OpClass           27      0.00%      0.00% # Class of committed instruction (Count)
system.cpu.committedInstType_0::IntAlu       55071421     55.07%     55.07% # Class of committed instruction (Count)
system.cpu.committedInstType_0::IntMult            39      0.00%     55.07% # Class of committed instruction (Count)
system.cpu.committedInstType_0::IntDiv              4      0.00%     55.07% # Class of committed instruction (Count)
system.cpu.committedInstType_0::FloatAdd            0      0.00%     55.07% # Class of committed instruction (Count)
system.cpu.committedInstType_0::FloatCmp            2      0.00%     55.07% # Class of committed instruction (Count)
system.cpu.committedInstType_0::FloatCvt            0      0.00%     55.07% # Class of committed instruction (Count)
system.cpu.committedInstType_0::FloatMult            0      0.00%     55.07% # Class of committed instruction (Count)
system.cpu.committedInstType_0::FloatMultAcc            0      0.00%     55.07% # Class of committed instruction (Count)
system.cpu.committedInstType_0::FloatDiv            0      0.00%     55.07% # Class of committed instruction (Count)
system.cpu.committedInstType_0::FloatMisc       534631      0.53%     55.61% # Class of committed instruction (Count)
system.cpu.committedInstType_0::FloatSqrt            0      0.00%     55.61% # Class of committed instruction (Count)
system.cpu.committedInstType_0::SimdAdd            19      0.00%     55.61% # Class of committed instruction (Count)
system.cpu.committedInstType_0::SimdAddAcc            0      0.00%     55.61% # Class of committed instruction (Count)
system.cpu.committedInstType_0::SimdAlu            24      0.00%     55.61% # Class of committed instruction (Count)
system.cpu.committedInstType_0::SimdCmp            70      0.00%     55.61% # Class of committed instruction (Count)
system.cpu.committedInstType_0::SimdCvt             0      0.00%     55.61% # Class of committed instruction (Count)
system.cpu.committedInstType_0::SimdMisc           25      0.00%     55.61% # Class of committed instruction (Count)
system.cpu.committedInstType_0::SimdMult            0      0.00%     55.61% # Class of committed instruction (Count)
system.cpu.committedInstType_0::SimdMultAcc            0      0.00%     55.61% # Class of committed instruction (Count)
system.cpu.committedInstType_0::SimdShift            0      0.00%     55.61% # Class of committed instruction (Count)
system.cpu.committedInstType_0::SimdShiftAcc            0      0.00%     55.61% # Class of committed instruction (Count)
system.cpu.committedInstType_0::SimdDiv             0      0.00%     55.61% # Class of committed instruction (Count)
system.cpu.committedInstType_0::SimdSqrt            0      0.00%     55.61% # Class of committed instruction (Count)
system.cpu.committedInstType_0::SimdFloatAdd            0      0.00%     55.61% # Class of committed instruction (Count)
system.cpu.committedInstType_0::SimdFloatAlu            0      0.00%     55.61% # Class of committed instruction (Count)
system.cpu.committedInstType_0::SimdFloatCmp            0      0.00%     55.61% # Class of committed instruction (Count)
system.cpu.committedInstType_0::SimdFloatCvt            0      0.00%     55.61% # Class of committed instruction (Count)
system.cpu.committedInstType_0::SimdFloatDiv            0      0.00%     55.61% # Class of committed instruction (Count)
system.cpu.committedInstType_0::SimdFloatMisc            0      0.00%     55.61% # Class of committed instruction (Count)
system.cpu.committedInstType_0::SimdFloatMult            0      0.00%     55.61% # Class of committed instruction (Count)
system.cpu.committedInstType_0::SimdFloatMultAcc            0      0.00%     55.61% # Class of committed instruction (Count)
system.cpu.committedInstType_0::SimdFloatSqrt            0      0.00%     55.61% # Class of committed instruction (Count)
system.cpu.committedInstType_0::SimdReduceAdd            0      0.00%     55.61% # Class of committed instruction (Count)
system.cpu.committedInstType_0::SimdReduceAlu            0      0.00%     55.61% # Class of committed instruction (Count)
system.cpu.committedInstType_0::SimdReduceCmp            0      0.00%     55.61% # Class of committed instruction (Count)
system.cpu.committedInstType_0::SimdFloatReduceAdd            0      0.00%     55.61% # Class of committed instruction (Count)
system.cpu.committedInstType_0::SimdFloatReduceCmp            0      0.00%     55.61% # Class of committed instruction (Count)
system.cpu.committedInstType_0::SimdAes             0      0.00%     55.61% # Class of committed instruction (Count)
system.cpu.committedInstType_0::SimdAesMix            0      0.00%     55.61% # Class of committed instruction (Count)
system.cpu.committedInstType_0::SimdSha1Hash            0      0.00%     55.61% # Class of committed instruction (Count)
system.cpu.committedInstType_0::SimdSha1Hash2            0      0.00%     55.61% # Class of committed instruction (Count)
system.cpu.committedInstType_0::SimdSha256Hash            0      0.00%     55.61% # Class of committed instruction (Count)
system.cpu.committedInstType_0::SimdSha256Hash2            0      0.00%     55.61% # Class of committed instruction (Count)
system.cpu.committedInstType_0::SimdShaSigma2            0      0.00%     55.61% # Class of committed instruction (Count)
system.cpu.committedInstType_0::SimdShaSigma3            0      0.00%     55.61% # Class of committed instruction (Count)
system.cpu.committedInstType_0::SimdPredAlu            0      0.00%     55.61% # Class of committed instruction (Count)
system.cpu.committedInstType_0::MemRead      32611791     32.61%     88.22% # Class of committed instruction (Count)
system.cpu.committedInstType_0::MemWrite     11783744     11.78%    100.00% # Class of committed instruction (Count)
system.cpu.committedInstType_0::FloatMemRead            0      0.00%    100.00% # Class of committed instruction (Count)
system.cpu.committedInstType_0::FloatMemWrite            0      0.00%    100.00% # Class of committed instruction (Count)
system.cpu.committedInstType_0::IprAccess            0      0.00%    100.00% # Class of committed instruction (Count)
system.cpu.committedInstType_0::InstPrefetch            0      0.00%    100.00% # Class of committed instruction (Count)
system.cpu.committedInstType_0::total       100001797                       # Class of committed instruction (Count)
system.cpu.branchPred.lookups                  542949                       # Number of BP lookups (Count)
system.cpu.branchPred.condPredicted            541559                       # Number of conditional branches predicted (Count)
system.cpu.branchPred.condIncorrect               678                       # Number of conditional branches incorrect (Count)
system.cpu.branchPred.BTBLookups               540701                       # Number of BTB lookups (Count)
system.cpu.branchPred.BTBHits                  539339                       # Number of BTB hits (Count)
system.cpu.branchPred.BTBHitRatio            0.997481                       # BTB Hit Ratio (Ratio)
system.cpu.branchPred.RASUsed                     396                       # Number of times the RAS was used to get a target. (Count)
system.cpu.branchPred.RASIncorrect                 18                       # Number of incorrect RAS predictions. (Count)
system.cpu.branchPred.indirectLookups             150                       # Number of indirect predictor lookups. (Count)
system.cpu.branchPred.indirectHits                 29                       # Number of indirect target hits. (Count)
system.cpu.branchPred.indirectMisses              121                       # Number of indirect misses. (Count)
system.cpu.branchPred.indirectMispredicted           58                       # Number of mispredicted indirect branches. (Count)
system.cpu.dcache.demandHits::cpu.data       42971530                       # number of demand (read+write) hits (Count)
system.cpu.dcache.demandHits::total          42971530                       # number of demand (read+write) hits (Count)
system.cpu.dcache.overallHits::cpu.data      42971530                       # number of overall hits (Count)
system.cpu.dcache.overallHits::total         42971530                       # number of overall hits (Count)
system.cpu.dcache.demandMisses::cpu.data       334217                       # number of demand (read+write) misses (Count)
system.cpu.dcache.demandMisses::total          334217                       # number of demand (read+write) misses (Count)
system.cpu.dcache.overallMisses::cpu.data       334217                       # number of overall misses (Count)
system.cpu.dcache.overallMisses::total         334217                       # number of overall misses (Count)
system.cpu.dcache.demandMissLatency::cpu.data  44411761500                       # number of demand (read+write) miss ticks (Tick)
system.cpu.dcache.demandMissLatency::total  44411761500                       # number of demand (read+write) miss ticks (Tick)
system.cpu.dcache.overallMissLatency::cpu.data  44411761500                       # number of overall miss ticks (Tick)
system.cpu.dcache.overallMissLatency::total  44411761500                       # number of overall miss ticks (Tick)
system.cpu.dcache.demandAccesses::cpu.data     43305747                       # number of demand (read+write) accesses (Count)
system.cpu.dcache.demandAccesses::total      43305747                       # number of demand (read+write) accesses (Count)
system.cpu.dcache.overallAccesses::cpu.data     43305747                       # number of overall (read+write) accesses (Count)
system.cpu.dcache.overallAccesses::total     43305747                       # number of overall (read+write) accesses (Count)
system.cpu.dcache.demandMissRate::cpu.data     0.007718                       # miss rate for demand accesses (Ratio)
system.cpu.dcache.demandMissRate::total      0.007718                       # miss rate for demand accesses (Ratio)
system.cpu.dcache.overallMissRate::cpu.data     0.007718                       # miss rate for overall accesses (Ratio)
system.cpu.dcache.overallMissRate::total     0.007718                       # miss rate for overall accesses (Ratio)
system.cpu.dcache.demandAvgMissLatency::cpu.data 132883.011636                       # average overall miss latency in ticks ((Tick/Count))
system.cpu.dcache.demandAvgMissLatency::total 132883.011636                       # average overall miss latency in ticks ((Tick/Count))
system.cpu.dcache.overallAvgMissLatency::cpu.data 132883.011636                       # average overall miss latency ((Tick/Count))
system.cpu.dcache.overallAvgMissLatency::total 132883.011636                       # average overall miss latency ((Tick/Count))
system.cpu.dcache.blockedCycles::no_mshrs            0                       # number of cycles access was blocked (Cycle)
system.cpu.dcache.blockedCycles::no_targets            0                       # number of cycles access was blocked (Cycle)
system.cpu.dcache.blockedCauses::no_mshrs            0                       # number of times access was blocked (Count)
system.cpu.dcache.blockedCauses::no_targets            0                       # number of times access was blocked (Count)
system.cpu.dcache.avgBlocked::no_mshrs            nan                       # average number of cycles each access was blocked ((Cycle/Count))
system.cpu.dcache.avgBlocked::no_targets          nan                       # average number of cycles each access was blocked ((Cycle/Count))
system.cpu.dcache.writebacks::writebacks       166847                       # number of writebacks (Count)
system.cpu.dcache.writebacks::total            166847                       # number of writebacks (Count)
system.cpu.dcache.demandMshrHits::cpu.data       167085                       # number of demand (read+write) MSHR hits (Count)
system.cpu.dcache.demandMshrHits::total        167085                       # number of demand (read+write) MSHR hits (Count)
system.cpu.dcache.overallMshrHits::cpu.data       167085                       # number of overall MSHR hits (Count)
system.cpu.dcache.overallMshrHits::total       167085                       # number of overall MSHR hits (Count)
system.cpu.dcache.demandMshrMisses::cpu.data       167132                       # number of demand (read+write) MSHR misses (Count)
system.cpu.dcache.demandMshrMisses::total       167132                       # number of demand (read+write) MSHR misses (Count)
system.cpu.dcache.overallMshrMisses::cpu.data       167132                       # number of overall MSHR misses (Count)
system.cpu.dcache.overallMshrMisses::total       167132                       # number of overall MSHR misses (Count)
system.cpu.dcache.demandMshrMissLatency::cpu.data  21842642500                       # number of demand (read+write) MSHR miss ticks (Tick)
system.cpu.dcache.demandMshrMissLatency::total  21842642500                       # number of demand (read+write) MSHR miss ticks (Tick)
system.cpu.dcache.overallMshrMissLatency::cpu.data  21842642500                       # number of overall MSHR miss ticks (Tick)
system.cpu.dcache.overallMshrMissLatency::total  21842642500                       # number of overall MSHR miss ticks (Tick)
system.cpu.dcache.demandMshrMissRate::cpu.data     0.003859                       # mshr miss ratio for demand accesses (Ratio)
system.cpu.dcache.demandMshrMissRate::total     0.003859                       # mshr miss ratio for demand accesses (Ratio)
system.cpu.dcache.overallMshrMissRate::cpu.data     0.003859                       # mshr miss ratio for overall accesses (Ratio)
system.cpu.dcache.overallMshrMissRate::total     0.003859                       # mshr miss ratio for overall accesses (Ratio)
system.cpu.dcache.demandAvgMshrMissLatency::cpu.data 130690.965823                       # average overall mshr miss latency ((Tick/Count))
system.cpu.dcache.demandAvgMshrMissLatency::total 130690.965823                       # average overall mshr miss latency ((Tick/Count))
system.cpu.dcache.overallAvgMshrMissLatency::cpu.data 130690.965823                       # average overall mshr miss latency ((Tick/Count))
system.cpu.dcache.overallAvgMshrMissLatency::total 130690.965823                       # average overall mshr miss latency ((Tick/Count))
system.cpu.dcache.replacements                 166877                       # number of replacements (Count)
system.cpu.dcache.LoadLockedReq.hits::cpu.data            3                       # number of LoadLockedReq hits (Count)
system.cpu.dcache.LoadLockedReq.hits::total            3                       # number of LoadLockedReq hits (Count)
system.cpu.dcache.LoadLockedReq.misses::cpu.data            1                       # number of LoadLockedReq misses (Count)
system.cpu.dcache.LoadLockedReq.misses::total            1                       # number of LoadLockedReq misses (Count)
system.cpu.dcache.LoadLockedReq.missLatency::cpu.data       121500                       # number of LoadLockedReq miss ticks (Tick)
system.cpu.dcache.LoadLockedReq.missLatency::total       121500                       # number of LoadLockedReq miss ticks (Tick)
system.cpu.dcache.LoadLockedReq.accesses::cpu.data            4                       # number of LoadLockedReq accesses(hits+misses) (Count)
system.cpu.dcache.LoadLockedReq.accesses::total            4                       # number of LoadLockedReq accesses(hits+misses) (Count)
system.cpu.dcache.LoadLockedReq.missRate::cpu.data     0.250000                       # miss rate for LoadLockedReq accesses (Ratio)
system.cpu.dcache.LoadLockedReq.missRate::total     0.250000                       # miss rate for LoadLockedReq accesses (Ratio)
system.cpu.dcache.LoadLockedReq.avgMissLatency::cpu.data       121500                       # average LoadLockedReq miss latency ((Tick/Count))
system.cpu.dcache.LoadLockedReq.avgMissLatency::total       121500                       # average LoadLockedReq miss latency ((Tick/Count))
system.cpu.dcache.LoadLockedReq.mshrMisses::cpu.data            1                       # number of LoadLockedReq MSHR misses (Count)
system.cpu.dcache.LoadLockedReq.mshrMisses::total            1                       # number of LoadLockedReq MSHR misses (Count)
system.cpu.dcache.LoadLockedReq.mshrMissLatency::cpu.data       120500                       # number of LoadLockedReq MSHR miss ticks (Tick)
system.cpu.dcache.LoadLockedReq.mshrMissLatency::total       120500                       # number of LoadLockedReq MSHR miss ticks (Tick)
system.cpu.dcache.LoadLockedReq.mshrMissRate::cpu.data     0.250000                       # mshr miss rate for LoadLockedReq accesses (Ratio)
system.cpu.dcache.LoadLockedReq.mshrMissRate::total     0.250000                       # mshr miss rate for LoadLockedReq accesses (Ratio)
system.cpu.dcache.LoadLockedReq.avgMshrMissLatency::cpu.data       120500                       # average LoadLockedReq mshr miss latency ((Tick/Count))
system.cpu.dcache.LoadLockedReq.avgMshrMissLatency::total       120500                       # average LoadLockedReq mshr miss latency ((Tick/Count))
system.cpu.dcache.ReadReq.hits::cpu.data     31542860                       # number of ReadReq hits (Count)
system.cpu.dcache.ReadReq.hits::total        31542860                       # number of ReadReq hits (Count)
system.cpu.dcache.ReadReq.misses::cpu.data           44                       # number of ReadReq misses (Count)
system.cpu.dcache.ReadReq.misses::total            44                       # number of ReadReq misses (Count)
system.cpu.dcache.ReadReq.missLatency::cpu.data      5979000                       # number of ReadReq miss ticks (Tick)
system.cpu.dcache.ReadReq.missLatency::total      5979000                       # number of ReadReq miss ticks (Tick)
system.cpu.dcache.ReadReq.accesses::cpu.data     31542904                       # number of ReadReq accesses(hits+misses) (Count)
system.cpu.dcache.ReadReq.accesses::total     31542904                       # number of ReadReq accesses(hits+misses) (Count)
system.cpu.dcache.ReadReq.missRate::cpu.data     0.000001                       # miss rate for ReadReq accesses (Ratio)
system.cpu.dcache.ReadReq.missRate::total     0.000001                       # miss rate for ReadReq accesses (Ratio)
system.cpu.dcache.ReadReq.avgMissLatency::cpu.data 135886.363636                       # average ReadReq miss latency ((Tick/Count))
system.cpu.dcache.ReadReq.avgMissLatency::total 135886.363636                       # average ReadReq miss latency ((Tick/Count))
system.cpu.dcache.ReadReq.mshrHits::cpu.data            4                       # number of ReadReq MSHR hits (Count)
system.cpu.dcache.ReadReq.mshrHits::total            4                       # number of ReadReq MSHR hits (Count)
system.cpu.dcache.ReadReq.mshrMisses::cpu.data           40                       # number of ReadReq MSHR misses (Count)
system.cpu.dcache.ReadReq.mshrMisses::total           40                       # number of ReadReq MSHR misses (Count)
system.cpu.dcache.ReadReq.mshrMissLatency::cpu.data      5472500                       # number of ReadReq MSHR miss ticks (Tick)
system.cpu.dcache.ReadReq.mshrMissLatency::total      5472500                       # number of ReadReq MSHR miss ticks (Tick)
system.cpu.dcache.ReadReq.mshrMissRate::cpu.data     0.000001                       # mshr miss rate for ReadReq accesses (Ratio)
system.cpu.dcache.ReadReq.mshrMissRate::total     0.000001                       # mshr miss rate for ReadReq accesses (Ratio)
system.cpu.dcache.ReadReq.avgMshrMissLatency::cpu.data 136812.500000                       # average ReadReq mshr miss latency ((Tick/Count))
system.cpu.dcache.ReadReq.avgMshrMissLatency::total 136812.500000                       # average ReadReq mshr miss latency ((Tick/Count))
system.cpu.dcache.StoreCondReq.hits::cpu.data            4                       # number of StoreCondReq hits (Count)
system.cpu.dcache.StoreCondReq.hits::total            4                       # number of StoreCondReq hits (Count)
system.cpu.dcache.StoreCondReq.accesses::cpu.data            4                       # number of StoreCondReq accesses(hits+misses) (Count)
system.cpu.dcache.StoreCondReq.accesses::total            4                       # number of StoreCondReq accesses(hits+misses) (Count)
system.cpu.dcache.SwapReq.hits::cpu.data           10                       # number of SwapReq hits (Count)
system.cpu.dcache.SwapReq.hits::total              10                       # number of SwapReq hits (Count)
system.cpu.dcache.SwapReq.accesses::cpu.data           10                       # number of SwapReq accesses(hits+misses) (Count)
system.cpu.dcache.SwapReq.accesses::total           10                       # number of SwapReq accesses(hits+misses) (Count)
system.cpu.dcache.WriteReq.hits::cpu.data     11428670                       # number of WriteReq hits (Count)
system.cpu.dcache.WriteReq.hits::total       11428670                       # number of WriteReq hits (Count)
system.cpu.dcache.WriteReq.misses::cpu.data       334173                       # number of WriteReq misses (Count)
system.cpu.dcache.WriteReq.misses::total       334173                       # number of WriteReq misses (Count)
system.cpu.dcache.WriteReq.missLatency::cpu.data  44405782500                       # number of WriteReq miss ticks (Tick)
system.cpu.dcache.WriteReq.missLatency::total  44405782500                       # number of WriteReq miss ticks (Tick)
system.cpu.dcache.WriteReq.accesses::cpu.data     11762843                       # number of WriteReq accesses(hits+misses) (Count)
system.cpu.dcache.WriteReq.accesses::total     11762843                       # number of WriteReq accesses(hits+misses) (Count)
system.cpu.dcache.WriteReq.missRate::cpu.data     0.028409                       # miss rate for WriteReq accesses (Ratio)
system.cpu.dcache.WriteReq.missRate::total     0.028409                       # miss rate for WriteReq accesses (Ratio)
system.cpu.dcache.WriteReq.avgMissLatency::cpu.data 132882.616190                       # average WriteReq miss latency ((Tick/Count))
system.cpu.dcache.WriteReq.avgMissLatency::total 132882.616190                       # average WriteReq miss latency ((Tick/Count))
system.cpu.dcache.WriteReq.mshrHits::cpu.data       167081                       # number of WriteReq MSHR hits (Count)
system.cpu.dcache.WriteReq.mshrHits::total       167081                       # number of WriteReq MSHR hits (Count)
system.cpu.dcache.WriteReq.mshrMisses::cpu.data       167092                       # number of WriteReq MSHR misses (Count)
system.cpu.dcache.WriteReq.mshrMisses::total       167092                       # number of WriteReq MSHR misses (Count)
system.cpu.dcache.WriteReq.mshrMissLatency::cpu.data  21837170000                       # number of WriteReq MSHR miss ticks (Tick)
system.cpu.dcache.WriteReq.mshrMissLatency::total  21837170000                       # number of WriteReq MSHR miss ticks (Tick)
system.cpu.dcache.WriteReq.mshrMissRate::cpu.data     0.014205                       # mshr miss rate for WriteReq accesses (Ratio)
system.cpu.dcache.WriteReq.mshrMissRate::total     0.014205                       # mshr miss rate for WriteReq accesses (Ratio)
system.cpu.dcache.WriteReq.avgMshrMissLatency::cpu.data 130689.500395                       # average WriteReq mshr miss latency ((Tick/Count))
system.cpu.dcache.WriteReq.avgMshrMissLatency::total 130689.500395                       # average WriteReq mshr miss latency ((Tick/Count))
system.cpu.dcache.power_state.pwrStateResidencyTicks::UNDEFINED  81339651000                       # Cumulative time (in ticks) in various power states (Tick)
system.cpu.dcache.tags.tagsInUse           255.776095                       # Average ticks per tags in use ((Tick/Count))
system.cpu.dcache.tags.totalRefs             43138680                       # Total number of references to valid blocks. (Count)
system.cpu.dcache.tags.sampledRefs             167133                       # Sample count of references to valid blocks. (Count)
system.cpu.dcache.tags.avgRefs             258.109889                       # Average number of references to valid blocks. ((Count/Count))
system.cpu.dcache.tags.warmupTick              271500                       # The tick when the warmup percentage was hit. (Tick)
system.cpu.dcache.tags.occupancies::cpu.data   255.776095                       # Average occupied blocks per tick, per requestor ((Count/Tick))
system.cpu.dcache.tags.avgOccs::cpu.data     0.999125                       # Average percentage of cache occupancy ((Ratio/Tick))
system.cpu.dcache.tags.avgOccs::total        0.999125                       # Average percentage of cache occupancy ((Ratio/Tick))
system.cpu.dcache.tags.occupanciesTaskId::1024          256                       # Occupied blocks per task id (Count)
system.cpu.dcache.tags.ageTaskId_1024::0           21                       # Occupied blocks per task id, per block age (Count)
system.cpu.dcache.tags.ageTaskId_1024::1          183                       # Occupied blocks per task id, per block age (Count)
system.cpu.dcache.tags.ageTaskId_1024::2           50                       # Occupied blocks per task id, per block age (Count)
system.cpu.dcache.tags.ageTaskId_1024::4            2                       # Occupied blocks per task id, per block age (Count)
system.cpu.dcache.tags.ratioOccsTaskId::1024            1                       # Ratio of occupied blocks and all blocks, per task id (Ratio)
system.cpu.dcache.tags.tagAccesses           86778663                       # Number of tag accesses (Count)
system.cpu.dcache.tags.dataAccesses          86778663                       # Number of data accesses (Count)
system.cpu.dcache.tags.power_state.pwrStateResidencyTicks::UNDEFINED  81339651000                       # Cumulative time (in ticks) in various power states (Tick)
system.cpu.fetch2.intInstructions            54799139                       # Number of integer instructions successfully decoded (Count)
system.cpu.fetch2.fpInstructions                    0                       # Number of floating point instructions successfully decoded (Count)
system.cpu.fetch2.vecInstructions              534821                       # Number of SIMD instructions successfully decoded (Count)
system.cpu.fetch2.loadInstructions           32758931                       # Number of memory load instructions successfully decoded (Count)
system.cpu.fetch2.storeInstructions          11829051                       # Number of memory store instructions successfully decoded (Count)
system.cpu.fetch2.amoInstructions                  14                       # Number of memory atomic instructions successfully decoded (Count)
system.cpu.icache.demandHits::cpu.inst        2734743                       # number of demand (read+write) hits (Count)
system.cpu.icache.demandHits::total           2734743                       # number of demand (read+write) hits (Count)
system.cpu.icache.overallHits::cpu.inst       2734743                       # number of overall hits (Count)
system.cpu.icache.overallHits::total          2734743                       # number of overall hits (Count)
system.cpu.icache.demandMisses::cpu.inst          309                       # number of demand (read+write) misses (Count)
system.cpu.icache.demandMisses::total             309                       # number of demand (read+write) misses (Count)
system.cpu.icache.overallMisses::cpu.inst          309                       # number of overall misses (Count)
system.cpu.icache.overallMisses::total            309                       # number of overall misses (Count)
system.cpu.icache.demandMissLatency::cpu.inst     27952500                       # number of demand (read+write) miss ticks (Tick)
system.cpu.icache.demandMissLatency::total     27952500                       # number of demand (read+write) miss ticks (Tick)
system.cpu.icache.overallMissLatency::cpu.inst     27952500                       # number of overall miss ticks (Tick)
system.cpu.icache.overallMissLatency::total     27952500                       # number of overall miss ticks (Tick)
system.cpu.icache.demandAccesses::cpu.inst      2735052                       # number of demand (read+write) accesses (Count)
system.cpu.icache.demandAccesses::total       2735052                       # number of demand (read+write) accesses (Count)
system.cpu.icache.overallAccesses::cpu.inst      2735052                       # number of overall (read+write) accesses (Count)
system.cpu.icache.overallAccesses::total      2735052                       # number of overall (read+write) accesses (Count)
system.cpu.icache.demandMissRate::cpu.inst     0.000113                       # miss rate for demand accesses (Ratio)
system.cpu.icache.demandMissRate::total      0.000113                       # miss rate for demand accesses (Ratio)
system.cpu.icache.overallMissRate::cpu.inst     0.000113                       # miss rate for overall accesses (Ratio)
system.cpu.icache.overallMissRate::total     0.000113                       # miss rate for overall accesses (Ratio)
system.cpu.icache.demandAvgMissLatency::cpu.inst 90461.165049                       # average overall miss latency in ticks ((Tick/Count))
system.cpu.icache.demandAvgMissLatency::total 90461.165049                       # average overall miss latency in ticks ((Tick/Count))
system.cpu.icache.overallAvgMissLatency::cpu.inst 90461.165049                       # average overall miss latency ((Tick/Count))
system.cpu.icache.overallAvgMissLatency::total 90461.165049                       # average overall miss latency ((Tick/Count))
system.cpu.icache.blockedCycles::no_mshrs            0                       # number of cycles access was blocked (Cycle)
system.cpu.icache.blockedCycles::no_targets            0                       # number of cycles access was blocked (Cycle)
system.cpu.icache.blockedCauses::no_mshrs            0                       # number of times access was blocked (Count)
system.cpu.icache.blockedCauses::no_targets            0                       # number of times access was blocked (Count)
system.cpu.icache.avgBlocked::no_mshrs            nan                       # average number of cycles each access was blocked ((Cycle/Count))
system.cpu.icache.avgBlocked::no_targets          nan                       # average number of cycles each access was blocked ((Cycle/Count))
system.cpu.icache.writebacks::writebacks          245                       # number of writebacks (Count)
system.cpu.icache.writebacks::total               245                       # number of writebacks (Count)
system.cpu.icache.demandMshrMisses::cpu.inst          309                       # number of demand (read+write) MSHR misses (Count)
system.cpu.icache.demandMshrMisses::total          309                       # number of demand (read+write) MSHR misses (Count)
system.cpu.icache.overallMshrMisses::cpu.inst          309                       # number of overall MSHR misses (Count)
system.cpu.icache.overallMshrMisses::total          309                       # number of overall MSHR misses (Count)
system.cpu.icache.demandMshrMissLatency::cpu.inst     27643500                       # number of demand (read+write) MSHR miss ticks (Tick)
system.cpu.icache.demandMshrMissLatency::total     27643500                       # number of demand (read+write) MSHR miss ticks (Tick)
system.cpu.icache.overallMshrMissLatency::cpu.inst     27643500                       # number of overall MSHR miss ticks (Tick)
system.cpu.icache.overallMshrMissLatency::total     27643500                       # number of overall MSHR miss ticks (Tick)
system.cpu.icache.demandMshrMissRate::cpu.inst     0.000113                       # mshr miss ratio for demand accesses (Ratio)
system.cpu.icache.demandMshrMissRate::total     0.000113                       # mshr miss ratio for demand accesses (Ratio)
system.cpu.icache.overallMshrMissRate::cpu.inst     0.000113                       # mshr miss ratio for overall accesses (Ratio)
system.cpu.icache.overallMshrMissRate::total     0.000113                       # mshr miss ratio for overall accesses (Ratio)
system.cpu.icache.demandAvgMshrMissLatency::cpu.inst 89461.165049                       # average overall mshr miss latency ((Tick/Count))
system.cpu.icache.demandAvgMshrMissLatency::total 89461.165049                       # average overall mshr miss latency ((Tick/Count))
system.cpu.icache.overallAvgMshrMissLatency::cpu.inst 89461.165049                       # average overall mshr miss latency ((Tick/Count))
system.cpu.icache.overallAvgMshrMissLatency::total 89461.165049                       # average overall mshr miss latency ((Tick/Count))
system.cpu.icache.replacements                    245                       # number of replacements (Count)
system.cpu.icache.ReadReq.hits::cpu.inst      2734743                       # number of ReadReq hits (Count)
system.cpu.icache.ReadReq.hits::total         2734743                       # number of ReadReq hits (Count)
system.cpu.icache.ReadReq.misses::cpu.inst          309                       # number of ReadReq misses (Count)
system.cpu.icache.ReadReq.misses::total           309                       # number of ReadReq misses (Count)
system.cpu.icache.ReadReq.missLatency::cpu.inst     27952500                       # number of ReadReq miss ticks (Tick)
system.cpu.icache.ReadReq.missLatency::total     27952500                       # number of ReadReq miss ticks (Tick)
system.cpu.icache.ReadReq.accesses::cpu.inst      2735052                       # number of ReadReq accesses(hits+misses) (Count)
system.cpu.icache.ReadReq.accesses::total      2735052                       # number of ReadReq accesses(hits+misses) (Count)
system.cpu.icache.ReadReq.missRate::cpu.inst     0.000113                       # miss rate for ReadReq accesses (Ratio)
system.cpu.icache.ReadReq.missRate::total     0.000113                       # miss rate for ReadReq accesses (Ratio)
system.cpu.icache.ReadReq.avgMissLatency::cpu.inst 90461.165049                       # average ReadReq miss latency ((Tick/Count))
system.cpu.icache.ReadReq.avgMissLatency::total 90461.165049                       # average ReadReq miss latency ((Tick/Count))
system.cpu.icache.ReadReq.mshrMisses::cpu.inst          309                       # number of ReadReq MSHR misses (Count)
system.cpu.icache.ReadReq.mshrMisses::total          309                       # number of ReadReq MSHR misses (Count)
system.cpu.icache.ReadReq.mshrMissLatency::cpu.inst     27643500                       # number of ReadReq MSHR miss ticks (Tick)
system.cpu.icache.ReadReq.mshrMissLatency::total     27643500                       # number of ReadReq MSHR miss ticks (Tick)
system.cpu.icache.ReadReq.mshrMissRate::cpu.inst     0.000113                       # mshr miss rate for ReadReq accesses (Ratio)
system.cpu.icache.ReadReq.mshrMissRate::total     0.000113                       # mshr miss rate for ReadReq accesses (Ratio)
system.cpu.icache.ReadReq.avgMshrMissLatency::cpu.inst 89461.165049                       # average ReadReq mshr miss latency ((Tick/Count))
system.cpu.icache.ReadReq.avgMshrMissLatency::total 89461.165049                       # average ReadReq mshr miss latency ((Tick/Count))
system.cpu.icache.power_state.pwrStateResidencyTicks::UNDEFINED  81339651000                       # Cumulative time (in ticks) in various power states (Tick)
system.cpu.icache.tags.tagsInUse            63.994768                       # Average ticks per tags in use ((Tick/Count))
system.cpu.icache.tags.totalRefs              2735052                       # Total number of references to valid blocks. (Count)
system.cpu.icache.tags.sampledRefs                309                       # Sample count of references to valid blocks. (Count)
system.cpu.icache.tags.avgRefs            8851.300971                       # Average number of references to valid blocks. ((Count/Count))
system.cpu.icache.tags.warmupTick              122500                       # The tick when the warmup percentage was hit. (Tick)
system.cpu.icache.tags.occupancies::cpu.inst    63.994768                       # Average occupied blocks per tick, per requestor ((Count/Tick))
system.cpu.icache.tags.avgOccs::cpu.inst     0.999918                       # Average percentage of cache occupancy ((Ratio/Tick))
system.cpu.icache.tags.avgOccs::total        0.999918                       # Average percentage of cache occupancy ((Ratio/Tick))
system.cpu.icache.tags.occupanciesTaskId::1024           64                       # Occupied blocks per task id (Count)
system.cpu.icache.tags.ageTaskId_1024::4           64                       # Occupied blocks per task id, per block age (Count)
system.cpu.icache.tags.ratioOccsTaskId::1024            1                       # Ratio of occupied blocks and all blocks, per task id (Ratio)
system.cpu.icache.tags.tagAccesses            5470413                       # Number of tag accesses (Count)
system.cpu.icache.tags.dataAccesses           5470413                       # Number of data accesses (Count)
system.cpu.icache.tags.power_state.pwrStateResidencyTicks::UNDEFINED  81339651000                       # Cumulative time (in ticks) in various power states (Tick)
system.cpu.mmu.alignFaults                          0                       # Number of MMU faults due to alignment restrictions (Count)
system.cpu.mmu.prefetchFaults                       0                       # Number of MMU faults due to prefetch (Count)
system.cpu.mmu.domainFaults                         0                       # Number of MMU faults due to domain restrictions (Count)
system.cpu.mmu.permsFaults                          0                       # Number of MMU faults due to permissions restrictions (Count)
system.cpu.mmu.dtb.readHits                         0                       # Read hits (Count)
system.cpu.mmu.dtb.readMisses                       0                       # Read misses (Count)
system.cpu.mmu.dtb.writeHits                        0                       # Write hits (Count)
system.cpu.mmu.dtb.writeMisses                      0                       # Write misses (Count)
system.cpu.mmu.dtb.inserts                          0                       # Number of times an entry is inserted into the TLB (Count)
system.cpu.mmu.dtb.flushTlb                         0                       # Number of times complete TLB was flushed (Count)
system.cpu.mmu.dtb.flushTlbMva                      0                       # Number of times TLB was flushed by MVA (Count)
system.cpu.mmu.dtb.flushTlbMvaAsid                  0                       # Number of times TLB was flushed by MVA & ASID (Count)
system.cpu.mmu.dtb.flushTlbAsid                     0                       # Number of times TLB was flushed by ASID (Count)
system.cpu.mmu.dtb.flushedEntries                   0                       # Number of entries that have been flushed from TLB (Count)
system.cpu.mmu.dtb.readAccesses                     0                       # Read accesses (Count)
system.cpu.mmu.dtb.writeAccesses                    0                       # Write accesses (Count)
system.cpu.mmu.dtb.hits                             0                       # Total TLB (inst and data) hits (Count)
system.cpu.mmu.dtb.misses                           0                       # Total TLB (inst and data) misses (Count)
system.cpu.mmu.dtb.accesses                         0                       # Total TLB (inst and data) accesses (Count)
system.cpu.mmu.dtb_walker.walks                     0                       # Table walker walks requested (Count)
system.cpu.mmu.dtb_walker.requestOrigin_Requested::Data            0                       # Table walker requests started/completed, data/inst (Count)
system.cpu.mmu.dtb_walker.requestOrigin_Requested::Inst            0                       # Table walker requests started/completed, data/inst (Count)
system.cpu.mmu.dtb_walker.requestOrigin_Requested::total            0                       # Table walker requests started/completed, data/inst (Count)
system.cpu.mmu.dtb_walker.requestOrigin_Completed::Data            0                       # Table walker requests started/completed, data/inst (Count)
system.cpu.mmu.dtb_walker.requestOrigin_Completed::Inst            0                       # Table walker requests started/completed, data/inst (Count)
system.cpu.mmu.dtb_walker.requestOrigin_Completed::total            0                       # Table walker requests started/completed, data/inst (Count)
system.cpu.mmu.dtb_walker.requestOrigin::total            0                       # Table walker requests started/completed, data/inst (Count)
system.cpu.mmu.dtb_walker.power_state.pwrStateResidencyTicks::UNDEFINED  81339651000                       # Cumulative time (in ticks) in various power states (Tick)
system.cpu.mmu.itb.instHits                         0                       # Inst hits (Count)
system.cpu.mmu.itb.instMisses                       0                       # Inst misses (Count)
system.cpu.mmu.itb.inserts                          0                       # Number of times an entry is inserted into the TLB (Count)
system.cpu.mmu.itb.flushTlb                         0                       # Number of times complete TLB was flushed (Count)
system.cpu.mmu.itb.flushTlbMva                      0                       # Number of times TLB was flushed by MVA (Count)
system.cpu.mmu.itb.flushTlbMvaAsid                  0                       # Number of times TLB was flushed by MVA & ASID (Count)
system.cpu.mmu.itb.flushTlbAsid                     0                       # Number of times TLB was flushed by ASID (Count)
system.cpu.mmu.itb.flushedEntries                   0                       # Number of entries that have been flushed from TLB (Count)
system.cpu.mmu.itb.instAccesses                     0                       # Inst accesses (Count)
system.cpu.mmu.itb.hits                             0                       # Total TLB (inst and data) hits (Count)
system.cpu.mmu.itb.misses                           0                       # Total TLB (inst and data) misses (Count)
system.cpu.mmu.itb.accesses                         0                       # Total TLB (inst and data) accesses (Count)
system.cpu.mmu.itb_walker.walks                     0                       # Table walker walks requested (Count)
system.cpu.mmu.itb_walker.requestOrigin_Requested::Data            0                       # Table walker requests started/completed, data/inst (Count)
system.cpu.mmu.itb_walker.requestOrigin_Requested::Inst            0                       # Table walker requests started/completed, data/inst (Count)
system.cpu.mmu.itb_walker.requestOrigin_Requested::total            0                       # Table walker requests started/completed, data/inst (Count)
system.cpu.mmu.itb_walker.requestOrigin_Completed::Data            0                       # Table walker requests started/completed, data/inst (Count)
system.cpu.mmu.itb_walker.requestOrigin_Completed::Inst            0                       # Table walker requests started/completed, data/inst (Count)
system.cpu.mmu.itb_walker.requestOrigin_Completed::total            0                       # Table walker requests started/completed, data/inst (Count)
system.cpu.mmu.itb_walker.requestOrigin::total            0                       # Table walker requests started/completed, data/inst (Count)
system.cpu.mmu.itb_walker.power_state.pwrStateResidencyTicks::UNDEFINED  81339651000                       # Cumulative time (in ticks) in various power states (Tick)
system.cpu.mmu.l2_shared.instHits                   0                       # Inst hits (Count)
system.cpu.mmu.l2_shared.instMisses                 0                       # Inst misses (Count)
system.cpu.mmu.l2_shared.inserts                    0                       # Number of times an entry is inserted into the TLB (Count)
system.cpu.mmu.l2_shared.flushTlb                   0                       # Number of times complete TLB was flushed (Count)
system.cpu.mmu.l2_shared.flushTlbMva                0                       # Number of times TLB was flushed by MVA (Count)
system.cpu.mmu.l2_shared.flushTlbMvaAsid            0                       # Number of times TLB was flushed by MVA & ASID (Count)
system.cpu.mmu.l2_shared.flushTlbAsid               0                       # Number of times TLB was flushed by ASID (Count)
system.cpu.mmu.l2_shared.flushedEntries             0                       # Number of entries that have been flushed from TLB (Count)
system.cpu.mmu.l2_shared.instAccesses               0                       # Inst accesses (Count)
system.cpu.mmu.l2_shared.hits                       0                       # Total TLB (inst and data) hits (Count)
system.cpu.mmu.l2_shared.misses                     0                       # Total TLB (inst and data) misses (Count)
system.cpu.mmu.l2_shared.accesses                   0                       # Total TLB (inst and data) accesses (Count)
system.cpu.mmu.stage2_dtb.readHits                  0                       # Read hits (Count)
system.cpu.mmu.stage2_dtb.readMisses                0                       # Read misses (Count)
system.cpu.mmu.stage2_dtb.writeHits                 0                       # Write hits (Count)
system.cpu.mmu.stage2_dtb.writeMisses               0                       # Write misses (Count)
system.cpu.mmu.stage2_dtb.inserts                   0                       # Number of times an entry is inserted into the TLB (Count)
system.cpu.mmu.stage2_dtb.flushTlb                  0                       # Number of times complete TLB was flushed (Count)
system.cpu.mmu.stage2_dtb.flushTlbMva               0                       # Number of times TLB was flushed by MVA (Count)
system.cpu.mmu.stage2_dtb.flushTlbMvaAsid            0                       # Number of times TLB was flushed by MVA & ASID (Count)
system.cpu.mmu.stage2_dtb.flushTlbAsid              0                       # Number of times TLB was flushed by ASID (Count)
system.cpu.mmu.stage2_dtb.flushedEntries            0                       # Number of entries that have been flushed from TLB (Count)
system.cpu.mmu.stage2_dtb.readAccesses              0                       # Read accesses (Count)
system.cpu.mmu.stage2_dtb.writeAccesses             0                       # Write accesses (Count)
system.cpu.mmu.stage2_dtb.hits                      0                       # Total TLB (inst and data) hits (Count)
system.cpu.mmu.stage2_dtb.misses                    0                       # Total TLB (inst and data) misses (Count)
system.cpu.mmu.stage2_dtb.accesses                  0                       # Total TLB (inst and data) accesses (Count)
system.cpu.mmu.stage2_dtb_walker.walks              0                       # Table walker walks requested (Count)
system.cpu.mmu.stage2_dtb_walker.requestOrigin_Requested::Data            0                       # Table walker requests started/completed, data/inst (Count)
system.cpu.mmu.stage2_dtb_walker.requestOrigin_Requested::Inst            0                       # Table walker requests started/completed, data/inst (Count)
system.cpu.mmu.stage2_dtb_walker.requestOrigin_Requested::total            0                       # Table walker requests started/completed, data/inst (Count)
system.cpu.mmu.stage2_dtb_walker.requestOrigin_Completed::Data            0                       # Table walker requests started/completed, data/inst (Count)
system.cpu.mmu.stage2_dtb_walker.requestOrigin_Completed::Inst            0                       # Table walker requests started/completed, data/inst (Count)
system.cpu.mmu.stage2_dtb_walker.requestOrigin_Completed::total            0                       # Table walker requests started/completed, data/inst (Count)
system.cpu.mmu.stage2_dtb_walker.requestOrigin::total            0                       # Table walker requests started/completed, data/inst (Count)
system.cpu.mmu.stage2_dtb_walker.power_state.pwrStateResidencyTicks::UNDEFINED  81339651000                       # Cumulative time (in ticks) in various power states (Tick)
system.cpu.mmu.stage2_itb.instHits                  0                       # Inst hits (Count)
system.cpu.mmu.stage2_itb.instMisses                0                       # Inst misses (Count)
system.cpu.mmu.stage2_itb.inserts                   0                       # Number of times an entry is inserted into the TLB (Count)
system.cpu.mmu.stage2_itb.flushTlb                  0                       # Number of times complete TLB was flushed (Count)
system.cpu.mmu.stage2_itb.flushTlbMva               0                       # Number of times TLB was flushed by MVA (Count)
system.cpu.mmu.stage2_itb.flushTlbMvaAsid            0                       # Number of times TLB was flushed by MVA & ASID (Count)
system.cpu.mmu.stage2_itb.flushTlbAsid              0                       # Number of times TLB was flushed by ASID (Count)
system.cpu.mmu.stage2_itb.flushedEntries            0                       # Number of entries that have been flushed from TLB (Count)
system.cpu.mmu.stage2_itb.instAccesses              0                       # Inst accesses (Count)
system.cpu.mmu.stage2_itb.hits                      0                       # Total TLB (inst and data) hits (Count)
system.cpu.mmu.stage2_itb.misses                    0                       # Total TLB (inst and data) misses (Count)
system.cpu.mmu.stage2_itb.accesses                  0                       # Total TLB (inst and data) accesses (Count)
system.cpu.mmu.stage2_itb_walker.walks              0                       # Table walker walks requested (Count)
system.cpu.mmu.stage2_itb_walker.requestOrigin_Requested::Data            0                       # Table walker requests started/completed, data/inst (Count)
system.cpu.mmu.stage2_itb_walker.requestOrigin_Requested::Inst            0                       # Table walker requests started/completed, data/inst (Count)
system.cpu.mmu.stage2_itb_walker.requestOrigin_Requested::total            0                       # Table walker requests started/completed, data/inst (Count)
system.cpu.mmu.stage2_itb_walker.requestOrigin_Completed::Data            0                       # Table walker requests started/completed, data/inst (Count)
system.cpu.mmu.stage2_itb_walker.requestOrigin_Completed::Inst            0                       # Table walker requests started/completed, data/inst (Count)
system.cpu.mmu.stage2_itb_walker.requestOrigin_Completed::total            0                       # Table walker requests started/completed, data/inst (Count)
system.cpu.mmu.stage2_itb_walker.requestOrigin::total            0                       # Table walker requests started/completed, data/inst (Count)
system.cpu.mmu.stage2_itb_walker.power_state.pwrStateResidencyTicks::UNDEFINED  81339651000                       # Cumulative time (in ticks) in various power states (Tick)
system.cpu.power_state.pwrStateResidencyTicks::ON  81339651000                       # Cumulative time (in ticks) in various power states (Tick)
system.cpu.thread_0.numInsts                100000000                       # Number of Instructions committed (Count)
system.cpu.thread_0.numOps                  100001797                       # Number of Ops committed (Count)
system.cpu.thread_0.numMemRefs                      0                       # Number of Memory References (Count)
system.cpu.workload.numSyscalls                    16                       # Number of system calls (Count)
system.cpu_clk_domain.clock                       500                       # Clock period in ticks (Tick)
system.cpu_voltage_domain.voltage                   1                       # Voltage in Volts (Volt)
system.l2.demandHits::cpu.inst                     96                       # number of demand (read+write) hits (Count)
system.l2.demandHits::cpu.data                      1                       # number of demand (read+write) hits (Count)
system.l2.demandHits::total                        97                       # number of demand (read+write) hits (Count)
system.l2.overallHits::cpu.inst                    96                       # number of overall hits (Count)
system.l2.overallHits::cpu.data                     1                       # number of overall hits (Count)
system.l2.overallHits::total                       97                       # number of overall hits (Count)
system.l2.demandMisses::cpu.inst                  213                       # number of demand (read+write) misses (Count)
system.l2.demandMisses::cpu.data               167132                       # number of demand (read+write) misses (Count)
system.l2.demandMisses::total                  167345                       # number of demand (read+write) misses (Count)
system.l2.overallMisses::cpu.inst                 213                       # number of overall misses (Count)
system.l2.overallMisses::cpu.data              167132                       # number of overall misses (Count)
system.l2.overallMisses::total                 167345                       # number of overall misses (Count)
system.l2.demandMissLatency::cpu.inst        25539000                       # number of demand (read+write) miss ticks (Tick)
system.l2.demandMissLatency::cpu.data     21592025500                       # number of demand (read+write) miss ticks (Tick)
system.l2.demandMissLatency::total        21617564500                       # number of demand (read+write) miss ticks (Tick)
system.l2.overallMissLatency::cpu.inst       25539000                       # number of overall miss ticks (Tick)
system.l2.overallMissLatency::cpu.data    21592025500                       # number of overall miss ticks (Tick)
system.l2.overallMissLatency::total       21617564500                       # number of overall miss ticks (Tick)
system.l2.demandAccesses::cpu.inst                309                       # number of demand (read+write) accesses (Count)
system.l2.demandAccesses::cpu.data             167133                       # number of demand (read+write) accesses (Count)
system.l2.demandAccesses::total                167442                       # number of demand (read+write) accesses (Count)
system.l2.overallAccesses::cpu.inst               309                       # number of overall (read+write) accesses (Count)
system.l2.overallAccesses::cpu.data            167133                       # number of overall (read+write) accesses (Count)
system.l2.overallAccesses::total               167442                       # number of overall (read+write) accesses (Count)
system.l2.demandMissRate::cpu.inst           0.689320                       # miss rate for demand accesses (Ratio)
system.l2.demandMissRate::cpu.data           0.999994                       # miss rate for demand accesses (Ratio)
system.l2.demandMissRate::total              0.999421                       # miss rate for demand accesses (Ratio)
system.l2.overallMissRate::cpu.inst          0.689320                       # miss rate for overall accesses (Ratio)
system.l2.overallMissRate::cpu.data          0.999994                       # miss rate for overall accesses (Ratio)
system.l2.overallMissRate::total             0.999421                       # miss rate for overall accesses (Ratio)
system.l2.demandAvgMissLatency::cpu.inst 119901.408451                       # average overall miss latency in ticks ((Tick/Count))
system.l2.demandAvgMissLatency::cpu.data 129191.450470                       # average overall miss latency in ticks ((Tick/Count))
system.l2.demandAvgMissLatency::total    129179.625922                       # average overall miss latency in ticks ((Tick/Count))
system.l2.overallAvgMissLatency::cpu.inst 119901.408451                       # average overall miss latency ((Tick/Count))
system.l2.overallAvgMissLatency::cpu.data 129191.450470                       # average overall miss latency ((Tick/Count))
system.l2.overallAvgMissLatency::total   129179.625922                       # average overall miss latency ((Tick/Count))
system.l2.blockedCycles::no_mshrs                   0                       # number of cycles access was blocked (Cycle)
system.l2.blockedCycles::no_targets                 0                       # number of cycles access was blocked (Cycle)
system.l2.blockedCauses::no_mshrs                   0                       # number of times access was blocked (Count)
system.l2.blockedCauses::no_targets                 0                       # number of times access was blocked (Count)
system.l2.avgBlocked::no_mshrs                    nan                       # average number of cycles each access was blocked ((Cycle/Count))
system.l2.avgBlocked::no_targets                  nan                       # average number of cycles each access was blocked ((Cycle/Count))
system.l2.writebacks::writebacks               158909                       # number of writebacks (Count)
system.l2.writebacks::total                    158909                       # number of writebacks (Count)
system.l2.demandMshrMisses::cpu.inst              213                       # number of demand (read+write) MSHR misses (Count)
system.l2.demandMshrMisses::cpu.data           167132                       # number of demand (read+write) MSHR misses (Count)
system.l2.demandMshrMisses::total              167345                       # number of demand (read+write) MSHR misses (Count)
system.l2.overallMshrMisses::cpu.inst             213                       # number of overall MSHR misses (Count)
system.l2.overallMshrMisses::cpu.data          167132                       # number of overall MSHR misses (Count)
system.l2.overallMshrMisses::total             167345                       # number of overall MSHR misses (Count)
system.l2.demandMshrMissLatency::cpu.inst     23409000                       # number of demand (read+write) MSHR miss ticks (Tick)
system.l2.demandMshrMissLatency::cpu.data  19920705500                       # number of demand (read+write) MSHR miss ticks (Tick)
system.l2.demandMshrMissLatency::total    19944114500                       # number of demand (read+write) MSHR miss ticks (Tick)
system.l2.overallMshrMissLatency::cpu.inst     23409000                       # number of overall MSHR miss ticks (Tick)
system.l2.overallMshrMissLatency::cpu.data  19920705500                       # number of overall MSHR miss ticks (Tick)
system.l2.overallMshrMissLatency::total   19944114500                       # number of overall MSHR miss ticks (Tick)
system.l2.demandMshrMissRate::cpu.inst       0.689320                       # mshr miss ratio for demand accesses (Ratio)
system.l2.demandMshrMissRate::cpu.data       0.999994                       # mshr miss ratio for demand accesses (Ratio)
system.l2.demandMshrMissRate::total          0.999421                       # mshr miss ratio for demand accesses (Ratio)
system.l2.overallMshrMissRate::cpu.inst      0.689320                       # mshr miss ratio for overall accesses (Ratio)
system.l2.overallMshrMissRate::cpu.data      0.999994                       # mshr miss ratio for overall accesses (Ratio)
system.l2.overallMshrMissRate::total         0.999421                       # mshr miss ratio for overall accesses (Ratio)
system.l2.demandAvgMshrMissLatency::cpu.inst 109901.408451                       # average overall mshr miss latency ((Tick/Count))
system.l2.demandAvgMshrMissLatency::cpu.data 119191.450470                       # average overall mshr miss latency ((Tick/Count))
system.l2.demandAvgMshrMissLatency::total 119179.625922                       # average overall mshr miss latency ((Tick/Count))
system.l2.overallAvgMshrMissLatency::cpu.inst 109901.408451                       # average overall mshr miss latency ((Tick/Count))
system.l2.overallAvgMshrMissLatency::cpu.data 119191.450470                       # average overall mshr miss latency ((Tick/Count))
system.l2.overallAvgMshrMissLatency::total 119179.625922                       # average overall mshr miss latency ((Tick/Count))
system.l2.replacements                         159153                       # number of replacements (Count)
system.l2.ReadCleanReq.hits::cpu.inst              96                       # number of ReadCleanReq hits (Count)
system.l2.ReadCleanReq.hits::total                 96                       # number of ReadCleanReq hits (Count)
system.l2.ReadCleanReq.misses::cpu.inst           213                       # number of ReadCleanReq misses (Count)
system.l2.ReadCleanReq.misses::total              213                       # number of ReadCleanReq misses (Count)
system.l2.ReadCleanReq.missLatency::cpu.inst     25539000                       # number of ReadCleanReq miss ticks (Tick)
system.l2.ReadCleanReq.missLatency::total     25539000                       # number of ReadCleanReq miss ticks (Tick)
system.l2.ReadCleanReq.accesses::cpu.inst          309                       # number of ReadCleanReq accesses(hits+misses) (Count)
system.l2.ReadCleanReq.accesses::total            309                       # number of ReadCleanReq accesses(hits+misses) (Count)
system.l2.ReadCleanReq.missRate::cpu.inst     0.689320                       # miss rate for ReadCleanReq accesses (Ratio)
system.l2.ReadCleanReq.missRate::total       0.689320                       # miss rate for ReadCleanReq accesses (Ratio)
system.l2.ReadCleanReq.avgMissLatency::cpu.inst 119901.408451                       # average ReadCleanReq miss latency ((Tick/Count))
system.l2.ReadCleanReq.avgMissLatency::total 119901.408451                       # average ReadCleanReq miss latency ((Tick/Count))
system.l2.ReadCleanReq.mshrMisses::cpu.inst          213                       # number of ReadCleanReq MSHR misses (Count)
system.l2.ReadCleanReq.mshrMisses::total          213                       # number of ReadCleanReq MSHR misses (Count)
system.l2.ReadCleanReq.mshrMissLatency::cpu.inst     23409000                       # number of ReadCleanReq MSHR miss ticks (Tick)
system.l2.ReadCleanReq.mshrMissLatency::total     23409000                       # number of ReadCleanReq MSHR miss ticks (Tick)
system.l2.ReadCleanReq.mshrMissRate::cpu.inst     0.689320                       # mshr miss rate for ReadCleanReq accesses (Ratio)
system.l2.ReadCleanReq.mshrMissRate::total     0.689320                       # mshr miss rate for ReadCleanReq accesses (Ratio)
system.l2.ReadCleanReq.avgMshrMissLatency::cpu.inst 109901.408451                       # average ReadCleanReq mshr miss latency ((Tick/Count))
system.l2.ReadCleanReq.avgMshrMissLatency::total 109901.408451                       # average ReadCleanReq mshr miss latency ((Tick/Count))
system.l2.ReadExReq.misses::cpu.data           167092                       # number of ReadExReq misses (Count)
system.l2.ReadExReq.misses::total              167092                       # number of ReadExReq misses (Count)
system.l2.ReadExReq.missLatency::cpu.data  21586520500                       # number of ReadExReq miss ticks (Tick)
system.l2.ReadExReq.missLatency::total    21586520500                       # number of ReadExReq miss ticks (Tick)
system.l2.ReadExReq.accesses::cpu.data         167092                       # number of ReadExReq accesses(hits+misses) (Count)
system.l2.ReadExReq.accesses::total            167092                       # number of ReadExReq accesses(hits+misses) (Count)
system.l2.ReadExReq.missRate::cpu.data              1                       # miss rate for ReadExReq accesses (Ratio)
system.l2.ReadExReq.missRate::total                 1                       # miss rate for ReadExReq accesses (Ratio)
system.l2.ReadExReq.avgMissLatency::cpu.data 129189.431571                       # average ReadExReq miss latency ((Tick/Count))
system.l2.ReadExReq.avgMissLatency::total 129189.431571                       # average ReadExReq miss latency ((Tick/Count))
system.l2.ReadExReq.mshrMisses::cpu.data       167092                       # number of ReadExReq MSHR misses (Count)
system.l2.ReadExReq.mshrMisses::total          167092                       # number of ReadExReq MSHR misses (Count)
system.l2.ReadExReq.mshrMissLatency::cpu.data  19915600500                       # number of ReadExReq MSHR miss ticks (Tick)
system.l2.ReadExReq.mshrMissLatency::total  19915600500                       # number of ReadExReq MSHR miss ticks (Tick)
system.l2.ReadExReq.mshrMissRate::cpu.data            1                       # mshr miss rate for ReadExReq accesses (Ratio)
system.l2.ReadExReq.mshrMissRate::total             1                       # mshr miss rate for ReadExReq accesses (Ratio)
system.l2.ReadExReq.avgMshrMissLatency::cpu.data 119189.431571                       # average ReadExReq mshr miss latency ((Tick/Count))
system.l2.ReadExReq.avgMshrMissLatency::total 119189.431571                       # average ReadExReq mshr miss latency ((Tick/Count))
system.l2.ReadSharedReq.hits::cpu.data              1                       # number of ReadSharedReq hits (Count)
system.l2.ReadSharedReq.hits::total                 1                       # number of ReadSharedReq hits (Count)
system.l2.ReadSharedReq.misses::cpu.data           40                       # number of ReadSharedReq misses (Count)
system.l2.ReadSharedReq.misses::total              40                       # number of ReadSharedReq misses (Count)
system.l2.ReadSharedReq.missLatency::cpu.data      5505000                       # number of ReadSharedReq miss ticks (Tick)
system.l2.ReadSharedReq.missLatency::total      5505000                       # number of ReadSharedReq miss ticks (Tick)
system.l2.ReadSharedReq.accesses::cpu.data           41                       # number of ReadSharedReq accesses(hits+misses) (Count)
system.l2.ReadSharedReq.accesses::total            41                       # number of ReadSharedReq accesses(hits+misses) (Count)
system.l2.ReadSharedReq.missRate::cpu.data     0.975610                       # miss rate for ReadSharedReq accesses (Ratio)
system.l2.ReadSharedReq.missRate::total      0.975610                       # miss rate for ReadSharedReq accesses (Ratio)
system.l2.ReadSharedReq.avgMissLatency::cpu.data       137625                       # average ReadSharedReq miss latency ((Tick/Count))
system.l2.ReadSharedReq.avgMissLatency::total       137625                       # average ReadSharedReq miss latency ((Tick/Count))
system.l2.ReadSharedReq.mshrMisses::cpu.data           40                       # number of ReadSharedReq MSHR misses (Count)
system.l2.ReadSharedReq.mshrMisses::total           40                       # number of ReadSharedReq MSHR misses (Count)
system.l2.ReadSharedReq.mshrMissLatency::cpu.data      5105000                       # number of ReadSharedReq MSHR miss ticks (Tick)
system.l2.ReadSharedReq.mshrMissLatency::total      5105000                       # number of ReadSharedReq MSHR miss ticks (Tick)
system.l2.ReadSharedReq.mshrMissRate::cpu.data     0.975610                       # mshr miss rate for ReadSharedReq accesses (Ratio)
system.l2.ReadSharedReq.mshrMissRate::total     0.975610                       # mshr miss rate for ReadSharedReq accesses (Ratio)
system.l2.ReadSharedReq.avgMshrMissLatency::cpu.data       127625                       # average ReadSharedReq mshr miss latency ((Tick/Count))
system.l2.ReadSharedReq.avgMshrMissLatency::total       127625                       # average ReadSharedReq mshr miss latency ((Tick/Count))
system.l2.WritebackClean.hits::writebacks          239                       # number of WritebackClean hits (Count)
system.l2.WritebackClean.hits::total              239                       # number of WritebackClean hits (Count)
system.l2.WritebackClean.accesses::writebacks          239                       # number of WritebackClean accesses(hits+misses) (Count)
system.l2.WritebackClean.accesses::total          239                       # number of WritebackClean accesses(hits+misses) (Count)
system.l2.WritebackDirty.hits::writebacks       166847                       # number of WritebackDirty hits (Count)
system.l2.WritebackDirty.hits::total           166847                       # number of WritebackDirty hits (Count)
system.l2.WritebackDirty.accesses::writebacks       166847                       # number of WritebackDirty accesses(hits+misses) (Count)
system.l2.WritebackDirty.accesses::total       166847                       # number of WritebackDirty accesses(hits+misses) (Count)
system.l2.power_state.pwrStateResidencyTicks::UNDEFINED  81339651000                       # Cumulative time (in ticks) in various power states (Tick)
system.l2.tags.tagsInUse                  7999.853988                       # Average ticks per tags in use ((Tick/Count))
system.l2.tags.totalRefs                       334556                       # Total number of references to valid blocks. (Count)
system.l2.tags.sampledRefs                     167345                       # Sample count of references to valid blocks. (Count)
system.l2.tags.avgRefs                       1.999199                       # Average number of references to valid blocks. ((Count/Count))
system.l2.tags.warmupTick                      112000                       # The tick when the warmup percentage was hit. (Tick)
system.l2.tags.occupancies::cpu.inst         9.289643                       # Average occupied blocks per tick, per requestor ((Count/Tick))
system.l2.tags.occupancies::cpu.data      7990.564344                       # Average occupied blocks per tick, per requestor ((Count/Tick))
system.l2.tags.avgOccs::cpu.inst             0.001134                       # Average percentage of cache occupancy ((Ratio/Tick))
system.l2.tags.avgOccs::cpu.data             0.975411                       # Average percentage of cache occupancy ((Ratio/Tick))
system.l2.tags.avgOccs::total                0.976545                       # Average percentage of cache occupancy ((Ratio/Tick))
system.l2.tags.occupanciesTaskId::1024           8192                       # Occupied blocks per task id (Count)
system.l2.tags.ageTaskId_1024::0                   21                       # Occupied blocks per task id, per block age (Count)
system.l2.tags.ageTaskId_1024::1                  184                       # Occupied blocks per task id, per block age (Count)
system.l2.tags.ageTaskId_1024::2                 1850                       # Occupied blocks per task id, per block age (Count)
system.l2.tags.ageTaskId_1024::3                 6137                       # Occupied blocks per task id, per block age (Count)
system.l2.tags.ratioOccsTaskId::1024                1                       # Ratio of occupied blocks and all blocks, per task id (Ratio)
system.l2.tags.tagAccesses                     836457                       # Number of tag accesses (Count)
system.l2.tags.dataAccesses                    836457                       # Number of data accesses (Count)
system.l2.tags.power_state.pwrStateResidencyTicks::UNDEFINED  81339651000                       # Cumulative time (in ticks) in various power states (Tick)
system.mem_ctrls.avgPriority_writebacks::samples   1271272.00                       # Average QoS priority value for accepted requests (Count)
system.mem_ctrls.avgPriority_cpu.inst::samples      1704.00                       # Average QoS priority value for accepted requests (Count)
system.mem_ctrls.avgPriority_cpu.data::samples   1337056.00                       # Average QoS priority value for accepted requests (Count)
system.mem_ctrls.priorityMinLatency      0.000000018750                       # per QoS priority minimum request to response latency (Second)
system.mem_ctrls.priorityMaxLatency      0.000035876750                       # per QoS priority maximum request to response latency (Second)
system.mem_ctrls.numReadWriteTurnArounds        52969                       # Number of turnarounds from READ to WRITE (Count)
system.mem_ctrls.numWriteReadTurnArounds        52969                       # Number of turnarounds from WRITE to READ (Count)
system.mem_ctrls.numStayReadState             1685463                       # Number of times bus staying in READ state (Count)
system.mem_ctrls.numStayWriteState            1218288                       # Number of times bus staying in WRITE state (Count)
system.mem_ctrls.readReqs                      167345                       # Number of read requests accepted (Count)
system.mem_ctrls.writeReqs                     158909                       # Number of write requests accepted (Count)
system.mem_ctrls.readBursts                   1338760                       # Number of controller read bursts, including those serviced by the write queue (Count)
system.mem_ctrls.writeBursts                  1271272                       # Number of controller write bursts, including those merged in the write queue (Count)
system.mem_ctrls.servicedByWrQ                      0                       # Number of controller read bursts serviced by the write queue (Count)
system.mem_ctrls.mergedWrBursts                     0                       # Number of controller write bursts merged with an existing one (Count)
system.mem_ctrls.neitherReadNorWriteReqs            0                       # Number of requests that are neither read nor write (Count)
system.mem_ctrls.avgRdQLen                       8.00                       # Average read queue length when enqueuing ((Count/Tick))
system.mem_ctrls.avgWrQLen                      29.61                       # Average write queue length when enqueuing ((Count/Tick))
system.mem_ctrls.numRdRetry                         0                       # Number of times read queue was full causing retry (Count)
system.mem_ctrls.numWrRetry                         0                       # Number of times write queue was full causing retry (Count)
system.mem_ctrls.readPktSize::0                     0                       # Read request sizes (log2) (Count)
system.mem_ctrls.readPktSize::1                     0                       # Read request sizes (log2) (Count)
system.mem_ctrls.readPktSize::2                     0                       # Read request sizes (log2) (Count)
system.mem_ctrls.readPktSize::3                     0                       # Read request sizes (log2) (Count)
system.mem_ctrls.readPktSize::4                     0                       # Read request sizes (log2) (Count)
system.mem_ctrls.readPktSize::5                     0                       # Read request sizes (log2) (Count)
system.mem_ctrls.readPktSize::6               1338760                       # Read request sizes (log2) (Count)
system.mem_ctrls.readPktSize::7                     0                       # Read request sizes (log2) (Count)
system.mem_ctrls.readPktSize::8                     0                       # Read request sizes (log2) (Count)
system.mem_ctrls.readPktSize::9                     0                       # Read request sizes (log2) (Count)
system.mem_ctrls.writePktSize::0                    0                       # Write request sizes (log2) (Count)
system.mem_ctrls.writePktSize::1                    0                       # Write request sizes (log2) (Count)
system.mem_ctrls.writePktSize::2                    0                       # Write request sizes (log2) (Count)
system.mem_ctrls.writePktSize::3                    0                       # Write request sizes (log2) (Count)
system.mem_ctrls.writePktSize::4                    0                       # Write request sizes (log2) (Count)
system.mem_ctrls.writePktSize::5                    0                       # Write request sizes (log2) (Count)
system.mem_ctrls.writePktSize::6              1271272                       # Write request sizes (log2) (Count)
system.mem_ctrls.writePktSize::7                    0                       # Write request sizes (log2) (Count)
system.mem_ctrls.writePktSize::8                    0                       # Write request sizes (log2) (Count)
system.mem_ctrls.writePktSize::9                    0                       # Write request sizes (log2) (Count)
system.mem_ctrls.rdQLenPdf::0                  167312                       # What read queue length does an incoming req see (Count)
system.mem_ctrls.rdQLenPdf::1                  167312                       # What read queue length does an incoming req see (Count)
system.mem_ctrls.rdQLenPdf::2                  167314                       # What read queue length does an incoming req see (Count)
system.mem_ctrls.rdQLenPdf::3                  167314                       # What read queue length does an incoming req see (Count)
system.mem_ctrls.rdQLenPdf::4                  167314                       # What read queue length does an incoming req see (Count)
[...]
system.mem_ctrls.dram.perBankWrBursts::5        79488                       # Per bank write bursts (Count)
system.mem_ctrls.dram.perBankWrBursts::6        79488                       # Per bank write bursts (Count)
system.mem_ctrls.dram.perBankWrBursts::7        79488                       # Per bank write bursts (Count)
system.mem_ctrls.dram.perBankWrBursts::8        79488                       # Per bank write bursts (Count)
system.mem_ctrls.dram.perBankWrBursts::9        79488                       # Per bank write bursts (Count)
system.mem_ctrls.dram.perBankWrBursts::10        79488                       # Per bank write bursts (Count)
system.mem_ctrls.dram.perBankWrBursts::11        79488                       # Per bank write bursts (Count)
system.mem_ctrls.dram.perBankWrBursts::12        79520                       # Per bank write bursts (Count)
system.mem_ctrls.dram.perBankWrBursts::13        79457                       # Per bank write bursts (Count)
system.mem_ctrls.dram.perBankWrBursts::14        79400                       # Per bank write bursts (Count)
system.mem_ctrls.dram.perBankWrBursts::15        79360                       # Per bank write bursts (Count)
system.mem_ctrls.dram.totQLat             55817210000                       # Total ticks spent queuing (Tick)
system.mem_ctrls.dram.totBusLat            6693800000                       # Total ticks spent in databus transfers (Tick)
system.mem_ctrls.dram.totMemAccLat        80918960000                       # Total ticks spent from burst creation until serviced by the DRAM (Tick)
system.mem_ctrls.dram.avgQLat                41693.22                       # Average queueing delay per DRAM burst ((Tick/Count))
system.mem_ctrls.dram.avgBusLat               5000.00                       # Average bus latency per DRAM burst ((Tick/Count))
system.mem_ctrls.dram.avgMemAccLat           60443.22                       # Average memory access latency per DRAM burst ((Tick/Count))
system.mem_ctrls.dram.readRowHits             1228060                       # Number of row buffer hits during reads (Count)
system.mem_ctrls.dram.writeRowHits            1165317                       # Number of row buffer hits during writes (Count)
system.mem_ctrls.dram.readRowHitRate            91.73                       # Row buffer hit rate for reads (Ratio)
system.mem_ctrls.dram.writeRowHitRate           91.67                       # Row buffer hit rate for writes (Ratio)
system.mem_ctrls.dram.bytesPerActivate::samples       216638                       # Bytes accessed per row activation (Byte)
system.mem_ctrls.dram.bytesPerActivate::mean   771.053795                       # Bytes accessed per row activation (Byte)
system.mem_ctrls.dram.bytesPerActivate::gmean   694.637400                       # Bytes accessed per row activation (Byte)
system.mem_ctrls.dram.bytesPerActivate::stdev   280.932941                       # Bytes accessed per row activation (Byte)
system.mem_ctrls.dram.bytesPerActivate::0-127         6622      3.06%      3.06% # Bytes accessed per row activation (Byte)
system.mem_ctrls.dram.bytesPerActivate::384-511         6621      3.06%      6.11% # Bytes accessed per row activation (Byte)
system.mem_ctrls.dram.bytesPerActivate::512-639        87162     40.23%     46.35% # Bytes accessed per row activation (Byte)
system.mem_ctrls.dram.bytesPerActivate::896-1023         3312      1.53%     47.88% # Bytes accessed per row activation (Byte)
system.mem_ctrls.dram.bytesPerActivate::1024-1151       112921     52.12%    100.00% # Bytes accessed per row activation (Byte)
system.mem_ctrls.dram.bytesPerActivate::total       216638                       # Bytes accessed per row activation (Byte)
system.mem_ctrls.dram.bytesRead              85680640                       # Total bytes read (Byte)
system.mem_ctrls.dram.bytesWritten           81360448                       # Total bytes written (Byte)
system.mem_ctrls.dram.avgRdBW             1053.368670                       # Average DRAM read bandwidth in MiBytes/s ((Byte/Second))
system.mem_ctrls.dram.avgWrBW             1000.255681                       # Average DRAM write bandwidth in MiBytes/s ((Byte/Second))
system.mem_ctrls.dram.peakBW                 12800.00                       # Theoretical peak bandwidth in MiByte/s ((Byte/Second))
system.mem_ctrls.dram.busUtil                   16.04                       # Data bus utilization in percentage (Ratio)
system.mem_ctrls.dram.busUtilRead                8.23                       # Data bus utilization in percentage for reads (Ratio)
system.mem_ctrls.dram.busUtilWrite               7.81                       # Data bus utilization in percentage for writes (Ratio)
system.mem_ctrls.dram.pageHitRate               91.70                       # Row buffer hit rate, read and write combined (Ratio)
system.mem_ctrls.dram.power_state.pwrStateResidencyTicks::UNDEFINED  81339651000                       # Cumulative time (in ticks) in various power states (Tick)
system.mem_ctrls.dram.rank0.actEnergy       773433360                       # Energy for activate commands per rank (pJ) (Joule)
system.mem_ctrls.dram.rank0.preEnergy       411089580                       # Energy for precharge commands per rank (pJ) (Joule)
system.mem_ctrls.dram.rank0.readEnergy     4780144320                       # Energy for read commands per rank (pJ) (Joule)
system.mem_ctrls.dram.rank0.writeEnergy    3317664960                       # Energy for write commands per rank (pJ) (Joule)
system.mem_ctrls.dram.rank0.refreshEnergy 6420529440.000001                       # Energy for refresh commands per rank (pJ) (Joule)
system.mem_ctrls.dram.rank0.actBackEnergy  17027119800                       # Energy for active background per rank (pJ) (Joule)
system.mem_ctrls.dram.rank0.preBackEnergy  16895798880                       # Energy for precharge background per rank (pJ) (Joule)
system.mem_ctrls.dram.rank0.actPowerDownEnergy            0                       # Energy for active power-down per rank (pJ) (Joule)
system.mem_ctrls.dram.rank0.prePowerDownEnergy            0                       # Energy for precharge power-down per rank (pJ) (Joule)
system.mem_ctrls.dram.rank0.selfRefreshEnergy            0                       # Energy for self refresh per rank (pJ) (Joule)
system.mem_ctrls.dram.rank0.totalEnergy   49625780340                       # Total energy per rank (pJ) (Joule)
system.mem_ctrls.dram.rank0.averagePower   610.105646                       # Core power per rank (mW) (Watt)
system.mem_ctrls.dram.rank0.totalIdleTime            0                       # Total Idle time Per DRAM Rank (Tick)
system.mem_ctrls.dram.rank0.pwrStateTime::IDLE  43122972750                       # Time in different power states (Tick)
system.mem_ctrls.dram.rank0.pwrStateTime::REF   2715960000                       # Time in different power states (Tick)
system.mem_ctrls.dram.rank0.pwrStateTime::SREF            0                       # Time in different power states (Tick)
system.mem_ctrls.dram.rank0.pwrStateTime::PRE_PDN            0                       # Time in different power states (Tick)
system.mem_ctrls.dram.rank0.pwrStateTime::ACT  35500718250                       # Time in different power states (Tick)
system.mem_ctrls.dram.rank0.pwrStateTime::ACT_PDN            0                       # Time in different power states (Tick)
system.mem_ctrls.dram.rank1.actEnergy       773376240                       # Energy for activate commands per rank (pJ) (Joule)
system.mem_ctrls.dram.rank1.preEnergy       411051630                       # Energy for precharge commands per rank (pJ) (Joule)
system.mem_ctrls.dram.rank1.readEnergy     4778602080                       # Energy for read commands per rank (pJ) (Joule)
system.mem_ctrls.dram.rank1.writeEnergy    3318296580                       # Energy for write commands per rank (pJ) (Joule)
system.mem_ctrls.dram.rank1.refreshEnergy 6420529440.000001                       # Energy for refresh commands per rank (pJ) (Joule)
system.mem_ctrls.dram.rank1.actBackEnergy  17027506830                       # Energy for active background per rank (pJ) (Joule)
system.mem_ctrls.dram.rank1.preBackEnergy  16895472960                       # Energy for precharge background per rank (pJ) (Joule)
system.mem_ctrls.dram.rank1.actPowerDownEnergy            0                       # Energy for active power-down per rank (pJ) (Joule)
system.mem_ctrls.dram.rank1.prePowerDownEnergy            0                       # Energy for precharge power-down per rank (pJ) (Joule)
system.mem_ctrls.dram.rank1.selfRefreshEnergy            0                       # Energy for self refresh per rank (pJ) (Joule)
system.mem_ctrls.dram.rank1.totalEnergy   49624835760                       # Total energy per rank (pJ) (Joule)
system.mem_ctrls.dram.rank1.averagePower   610.094033                       # Core power per rank (mW) (Watt)
system.mem_ctrls.dram.rank1.totalIdleTime            0                       # Total Idle time Per DRAM Rank (Tick)
system.mem_ctrls.dram.rank1.pwrStateTime::IDLE  43121927750                       # Time in different power states (Tick)
system.mem_ctrls.dram.rank1.pwrStateTime::REF   2715960000                       # Time in different power states (Tick)
system.mem_ctrls.dram.rank1.pwrStateTime::SREF            0                       # Time in different power states (Tick)
system.mem_ctrls.dram.rank1.pwrStateTime::PRE_PDN            0                       # Time in different power states (Tick)
system.mem_ctrls.dram.rank1.pwrStateTime::ACT  35501763250                       # Time in different power states (Tick)
system.mem_ctrls.dram.rank1.pwrStateTime::ACT_PDN            0                       # Time in different power states (Tick)
system.mem_ctrls.power_state.pwrStateResidencyTicks::UNDEFINED  81339651000                       # Cumulative time (in ticks) in various power states (Tick)
system.membus.transDist::ReadResp                 253                       # Transaction distribution (Count)
system.membus.transDist::WritebackDirty        158909                       # Transaction distribution (Count)
system.membus.transDist::CleanEvict               178                       # Transaction distribution (Count)
system.membus.transDist::ReadExReq             167092                       # Transaction distribution (Count)
system.membus.transDist::ReadExResp            167092                       # Transaction distribution (Count)
system.membus.transDist::ReadSharedReq            253                       # Transaction distribution (Count)
system.membus.pktCount_system.l2.mem_side_port::system.mem_ctrls.port       493777                       # Packet count per connected requestor and responder (Count)
system.membus.pktCount::total                  493777                       # Packet count per connected requestor and responder (Count)
system.membus.pktSize_system.l2.mem_side_port::system.mem_ctrls.port    167042048                       # Cumulative packet size per connected requestor and responder (Byte)
system.membus.pktSize::total                167042048                       # Cumulative packet size per connected requestor and responder (Byte)
system.membus.snoops                                0                       # Total snoops (Count)
system.membus.snoopTraffic                          0                       # Total snoop traffic (Byte)
system.membus.snoopFanout::samples             167345                       # Request fanout histogram (Count)
system.membus.snoopFanout::mean                     0                       # Request fanout histogram (Count)
system.membus.snoopFanout::stdev                    0                       # Request fanout histogram (Count)
system.membus.snoopFanout::underflows               0      0.00%      0.00% # Request fanout histogram (Count)
system.membus.snoopFanout::0                   167345    100.00%    100.00% # Request fanout histogram (Count)
system.membus.snoopFanout::1                        0      0.00%    100.00% # Request fanout histogram (Count)
system.membus.snoopFanout::overflows                0      0.00%    100.00% # Request fanout histogram (Count)
system.membus.snoopFanout::min_value                0                       # Request fanout histogram (Count)
system.membus.snoopFanout::max_value                0                       # Request fanout histogram (Count)
system.membus.snoopFanout::total               167345                       # Request fanout histogram (Count)
system.membus.power_state.pwrStateResidencyTicks::UNDEFINED  81339651000                       # Cumulative time (in ticks) in various power states (Tick)
system.membus.reqLayer0.occupancy          5457531000                       # Layer occupancy (ticks) (Tick)
system.membus.reqLayer0.utilization               0.1                       # Layer utilization (Ratio)
system.membus.respLayer1.occupancy         5599597500                       # Layer occupancy (ticks) (Tick)
system.membus.respLayer1.utilization              0.1                       # Layer utilization (Ratio)
system.membus.snoop_filter.totRequests         326432                       # Total number of requests made to the snoop filter. (Count)
system.membus.snoop_filter.hitSingleRequests       159087                       # Number of requests hitting in the snoop filter with a single holder of the requested data. (Count)
system.membus.snoop_filter.hitMultiRequests            0                       # Number of requests hitting in the snoop filter with multiple (>1) holders of the requested data. (Count)
system.membus.snoop_filter.totSnoops                0                       # Total number of snoops made to the snoop filter. (Count)
system.membus.snoop_filter.hitSingleSnoops            0                       # Number of snoops hitting in the snoop filter with a single holder of the requested data. (Count)
system.membus.snoop_filter.hitMultiSnoops            0                       # Number of snoops hitting in the snoop filter with multiple (>1) holders of the requested data. (Count)
system.tol2bus.transDist::ReadResp                350                       # Transaction distribution (Count)
system.tol2bus.transDist::WritebackDirty       325756                       # Transaction distribution (Count)
system.tol2bus.transDist::WritebackClean          245                       # Transaction distribution (Count)
system.tol2bus.transDist::CleanEvict              274                       # Transaction distribution (Count)
system.tol2bus.transDist::ReadExReq            167092                       # Transaction distribution (Count)
system.tol2bus.transDist::ReadExResp           167092                       # Transaction distribution (Count)
system.tol2bus.transDist::ReadCleanReq            309                       # Transaction distribution (Count)
system.tol2bus.transDist::ReadSharedReq            41                       # Transaction distribution (Count)
system.tol2bus.pktCount_system.cpu.icache.mem_side_port::system.l2.cpu_side_port          863                       # Packet count per connected requestor and responder (Count)
system.tol2bus.pktCount_system.cpu.dcache.mem_side_port::system.l2.cpu_side_port       501143                       # Packet count per connected requestor and responder (Count)
system.tol2bus.pktCount::total                 502006                       # Packet count per connected requestor and responder (Count)
system.tol2bus.pktSize_system.cpu.icache.mem_side_port::system.l2.cpu_side_port       283648                       # Cumulative packet size per connected requestor and responder (Byte)
system.tol2bus.pktSize_system.cpu.dcache.mem_side_port::system.l2.cpu_side_port    170997760                       # Cumulative packet size per connected requestor and responder (Byte)
system.tol2bus.pktSize::total               171281408                       # Cumulative packet size per connected requestor and responder (Byte)
system.tol2bus.snoops                          159153                       # Total snoops (Count)
system.tol2bus.snoopTraffic                  81361408                       # Total snoop traffic (Byte)
system.tol2bus.snoopFanout::samples            326595                       # Request fanout histogram (Count)
system.tol2bus.snoopFanout::mean             0.000227                       # Request fanout histogram (Count)
system.tol2bus.snoopFanout::stdev            0.015051                       # Request fanout histogram (Count)
system.tol2bus.snoopFanout::underflows              0      0.00%      0.00% # Request fanout histogram (Count)
system.tol2bus.snoopFanout::0                  326521     99.98%     99.98% # Request fanout histogram (Count)
system.tol2bus.snoopFanout::1                      74      0.02%    100.00% # Request fanout histogram (Count)
system.tol2bus.snoopFanout::2                       0      0.00%    100.00% # Request fanout histogram (Count)
system.tol2bus.snoopFanout::overflows               0      0.00%    100.00% # Request fanout histogram (Count)
system.tol2bus.snoopFanout::min_value               0                       # Request fanout histogram (Count)
system.tol2bus.snoopFanout::max_value               1                       # Request fanout histogram (Count)
system.tol2bus.snoopFanout::total              326595                       # Request fanout histogram (Count)
system.tol2bus.power_state.pwrStateResidencyTicks::UNDEFINED  81339651000                       # Cumulative time (in ticks) in various power states (Tick)
system.tol2bus.reqLayer0.occupancy         1504018000                       # Layer occupancy (ticks) (Tick)
system.tol2bus.reqLayer0.utilization              0.0                       # Layer utilization (Ratio)
system.tol2bus.respLayer0.occupancy           2626500                       # Layer occupancy (ticks) (Tick)
system.tol2bus.respLayer0.utilization             0.0                       # Layer utilization (Ratio)
system.tol2bus.respLayer1.occupancy        1420630500                       # Layer occupancy (ticks) (Tick)
system.tol2bus.respLayer1.utilization             0.0                       # Layer utilization (Ratio)
system.tol2bus.snoop_filter.totRequests        334564                       # Total number of requests made to the snoop filter. (Count)
system.tol2bus.snoop_filter.hitSingleRequests       167122                       # Number of requests hitting in the snoop filter with a single holder of the requested data. (Count)
system.tol2bus.snoop_filter.hitMultiRequests            8                       # Number of requests hitting in the snoop filter with multiple (>1) holders of the requested data. (Count)
system.tol2bus.snoop_filter.totSnoops              66                       # Total number of snoops made to the snoop filter. (Count)
system.tol2bus.snoop_filter.hitSingleSnoops           66                       # Number of snoops hitting in the snoop filter with a single holder of the requested data. (Count)
system.tol2bus.snoop_filter.hitMultiSnoops            0                       # Number of snoops hitting in the snoop filter with multiple (>1) holders of the requested data. (Count)
system.voltage_domain.voltage                       1                       # Voltage in Volts (Volt)
system.workload.inst.arm                            0                       # number of arm instructions executed (Count)
system.workload.inst.quiesce                        0                       # number of quiesce instructions executed (Count)
system.cpu.idleCycles                        50770428                       # Total number of cycles that the object has spent stopped (Unspecified)
system.cpu.tickCycles                       111908874                       # Number of cycles that the object actually ticked (Unspecified)

---------- End Simulation Statistics   ----------
